/*--------------------------------*- C++ -*----------------------------------*\																
  =========                 |																
  \\      /  F ield         | OpenFOAM: The Open Source CFD Toolbox																
   \\    /   O peration     | Website:  https://openfoam.org																
    \\  /    A nd           | Version:  7																
     \\/     M anipulation  |																
/*---------------------------------------------------------------------------*/																
FoamFile																
{																
    version     2.0;																
    format      ascii;																
    class       vectorField;																
    object      kinematicCloudPositions;																
}																
// * * * * * * * * * * * * * * * * * * * * * * * * * * * * * * * * * * * * * //																
																
(																
(-0.00096	0.000960	0.0001)														
(-0.00076	0.000960	0.0001)														
(-0.00056	0.000960	0.0001)														
(-0.00036	0.000960	0.0001)														
(-0.00016	0.000960	0.0001)														
(0.00004	0.000960	0.0001)														
(0.00024	0.000960	0.0001)														
(0.00044	0.000960	0.0001)														
(0.00064	0.000960	0.0001)														
(0.00084	0.000960	0.0001)														
(-0.00096	0.000760	0.0001)														
(-0.00076	0.000760	0.0001)														
(-0.00056	0.000760	0.0001)														
(-0.00036	0.000760	0.0001)														
(-0.00016	0.000760	0.0001)														
(0.00004	0.000760	0.0001)														
(0.00024	0.000760	0.0001)														
(0.00044	0.000760	0.0001)														
(0.00064	0.000760	0.0001)														
(0.00084	0.000760	0.0001)														
(-0.00096	0.000560	0.0001)														
(-0.00076	0.000560	0.0001)														
(-0.00056	0.000560	0.0001)														
(-0.00036	0.000560	0.0001)														
(-0.00016	0.000560	0.0001)														
(0.00004	0.000560	0.0001)														
(0.00024	0.000560	0.0001)														
(0.00044	0.000560	0.0001)														
(0.00064	0.000560	0.0001)														
(0.00084	0.000560	0.0001)														
(-0.00096	0.000360	0.0001)														
(-0.00076	0.000360	0.0001)														
(-0.00056	0.000360	0.0001)														
(-0.00036	0.000360	0.0001)														
(-0.00016	0.000360	0.0001)														
(0.00004	0.000360	0.0001)														
(0.00024	0.000360	0.0001)														
(0.00044	0.000360	0.0001)														
(0.00064	0.000360	0.0001)														
(0.00084	0.000360	0.0001)														
(-0.00096	0.000160	0.0001)														
(-0.00076	0.000160	0.0001)														
(-0.00056	0.000160	0.0001)														
(-0.00036	0.000160	0.0001)														
(-0.00016	0.000160	0.0001)														
(0.00004	0.000160	0.0001)														
(0.00024	0.000160	0.0001)														
(0.00044	0.000160	0.0001)														
(0.00064	0.000160	0.0001)														
(0.00084	0.000160	0.0001)														
(-0.00096	-0.000040	0.0001)														
(-0.00076	-0.000040	0.0001)														
(-0.00056	-0.000040	0.0001)														
(-0.00036	-0.000040	0.0001)														
(-0.00016	-0.000040	0.0001)														
(0.00004	-0.000040	0.0001)														
(0.00024	-0.000040	0.0001)														
(0.00044	-0.000040	0.0001)														
(0.00064	-0.000040	0.0001)														
(0.00084	-0.000040	0.0001)														
(-0.00096	-0.000240	0.0001)														
(-0.00076	-0.000240	0.0001)														
(-0.00056	-0.000240	0.0001)														
(-0.00036	-0.000240	0.0001)														
(-0.00016	-0.000240	0.0001)														
(0.00004	-0.000240	0.0001)														
(0.00024	-0.000240	0.0001)														
(0.00044	-0.000240	0.0001)														
(0.00064	-0.000240	0.0001)														
(0.00084	-0.000240	0.0001)														
(-0.00096	-0.000440	0.0001)														
(-0.00076	-0.000440	0.0001)														
(-0.00056	-0.000440	0.0001)														
(-0.00036	-0.000440	0.0001)														
(-0.00016	-0.000440	0.0001)														
(0.00004	-0.000440	0.0001)														
(0.00024	-0.000440	0.0001)														
(0.00044	-0.000440	0.0001)														
(0.00064	-0.000440	0.0001)														
(0.00084	-0.000440	0.0001)														
(-0.00096	-0.000640	0.0001)														
(-0.00076	-0.000640	0.0001)														
(-0.00056	-0.000640	0.0001)														
(-0.00036	-0.000640	0.0001)														
(-0.00016	-0.000640	0.0001)														
(0.00004	-0.000640	0.0001)														
(0.00024	-0.000640	0.0001)														
(0.00044	-0.000640	0.0001)														
(0.00064	-0.000640	0.0001)														
(0.00084	-0.000640	0.0001)														
(-0.00096	-0.000840	0.0001)														
(-0.00076	-0.000840	0.0001)														
(-0.00056	-0.000840	0.0001)														
(-0.00036	-0.000840	0.0001)														
(-0.00016	-0.000840	0.0001)														
(0.00004	-0.000840	0.0001)														
(0.00024	-0.000840	0.0001)														
(0.00044	-0.000840	0.0001)														
(0.00064	-0.000840	0.0001)														
(0.00084	-0.000840	0.0001)														
(-0.00096	0.000960	0.00025)														
(-0.00076	0.000960	0.00025)														
(-0.00056	0.000960	0.00025)														
(-0.00036	0.000960	0.00025)														
(-0.00016	0.000960	0.00025)														
(0.00004	0.000960	0.00025)														
(0.00024	0.000960	0.00025)														
(0.00044	0.000960	0.00025)														
(0.00064	0.000960	0.00025)														
(0.00084	0.000960	0.00025)														
(-0.00096	0.000760	0.00025)														
(-0.00076	0.000760	0.00025)														
(-0.00056	0.000760	0.00025)														
(-0.00036	0.000760	0.00025)														
(-0.00016	0.000760	0.00025)														
(0.00004	0.000760	0.00025)														
(0.00024	0.000760	0.00025)														
(0.00044	0.000760	0.00025)														
(0.00064	0.000760	0.00025)														
(0.00084	0.000760	0.00025)														
(-0.00096	0.000560	0.00025)														
(-0.00076	0.000560	0.00025)														
(-0.00056	0.000560	0.00025)														
(-0.00036	0.000560	0.00025)														
(-0.00016	0.000560	0.00025)														
(0.00004	0.000560	0.00025)														
(0.00024	0.000560	0.00025)														
(0.00044	0.000560	0.00025)														
(0.00064	0.000560	0.00025)														
(0.00084	0.000560	0.00025)														
(-0.00096	0.000360	0.00025)														
(-0.00076	0.000360	0.00025)														
(-0.00056	0.000360	0.00025)														
(-0.00036	0.000360	0.00025)														
(-0.00016	0.000360	0.00025)														
(0.00004	0.000360	0.00025)														
(0.00024	0.000360	0.00025)														
(0.00044	0.000360	0.00025)														
(0.00064	0.000360	0.00025)														
(0.00084	0.000360	0.00025)														
(-0.00096	0.000160	0.00025)														
(-0.00076	0.000160	0.00025)														
(-0.00056	0.000160	0.00025)														
(-0.00036	0.000160	0.00025)														
(-0.00016	0.000160	0.00025)														
(0.00004	0.000160	0.00025)														
(0.00024	0.000160	0.00025)														
(0.00044	0.000160	0.00025)														
(0.00064	0.000160	0.00025)														
(0.00084	0.000160	0.00025)														
(-0.00096	-0.000040	0.00025)														
(-0.00076	-0.000040	0.00025)														
(-0.00056	-0.000040	0.00025)														
(-0.00036	-0.000040	0.00025)														
(-0.00016	-0.000040	0.00025)														
(0.00004	-0.000040	0.00025)														
(0.00024	-0.000040	0.00025)														
(0.00044	-0.000040	0.00025)														
(0.00064	-0.000040	0.00025)														
(0.00084	-0.000040	0.00025)														
(-0.00096	-0.000240	0.00025)														
(-0.00076	-0.000240	0.00025)														
(-0.00056	-0.000240	0.00025)														
(-0.00036	-0.000240	0.00025)														
(-0.00016	-0.000240	0.00025)														
(0.00004	-0.000240	0.00025)														
(0.00024	-0.000240	0.00025)														
(0.00044	-0.000240	0.00025)														
(0.00064	-0.000240	0.00025)														
(0.00084	-0.000240	0.00025)														
(-0.00096	-0.000440	0.00025)														
(-0.00076	-0.000440	0.00025)														
(-0.00056	-0.000440	0.00025)														
(-0.00036	-0.000440	0.00025)														
(-0.00016	-0.000440	0.00025)														
(0.00004	-0.000440	0.00025)														
(0.00024	-0.000440	0.00025)														
(0.00044	-0.000440	0.00025)														
(0.00064	-0.000440	0.00025)														
(0.00084	-0.000440	0.00025)														
(-0.00096	-0.000640	0.00025)														
(-0.00076	-0.000640	0.00025)														
(-0.00056	-0.000640	0.00025)														
(-0.00036	-0.000640	0.00025)														
(-0.00016	-0.000640	0.00025)														
(0.00004	-0.000640	0.00025)														
(0.00024	-0.000640	0.00025)														
(0.00044	-0.000640	0.00025)														
(0.00064	-0.000640	0.00025)														
(0.00084	-0.000640	0.00025)														
(-0.00096	-0.000840	0.00025)														
(-0.00076	-0.000840	0.00025)														
(-0.00056	-0.000840	0.00025)														
(-0.00036	-0.000840	0.00025)														
(-0.00016	-0.000840	0.00025)														
(0.00004	-0.000840	0.00025)														
(0.00024	-0.000840	0.00025)														
(0.00044	-0.000840	0.00025)														
(0.00064	-0.000840	0.00025)														
(0.00084	-0.000840	0.00025)														
(-0.00096	0.000960	0.0004)														
(-0.00076	0.000960	0.0004)														
(-0.00056	0.000960	0.0004)														
(-0.00036	0.000960	0.0004)														
(-0.00016	0.000960	0.0004)														
(0.00004	0.000960	0.0004)														
(0.00024	0.000960	0.0004)														
(0.00044	0.000960	0.0004)														
(0.00064	0.000960	0.0004)														
(0.00084	0.000960	0.0004)														
(-0.00096	0.000760	0.0004)														
(-0.00076	0.000760	0.0004)														
(-0.00056	0.000760	0.0004)														
(-0.00036	0.000760	0.0004)														
(-0.00016	0.000760	0.0004)														
(0.00004	0.000760	0.0004)														
(0.00024	0.000760	0.0004)														
(0.00044	0.000760	0.0004)														
(0.00064	0.000760	0.0004)														
(0.00084	0.000760	0.0004)														
(-0.00096	0.000560	0.0004)														
(-0.00076	0.000560	0.0004)														
(-0.00056	0.000560	0.0004)														
(-0.00036	0.000560	0.0004)														
(-0.00016	0.000560	0.0004)														
(0.00004	0.000560	0.0004)														
(0.00024	0.000560	0.0004)														
(0.00044	0.000560	0.0004)														
(0.00064	0.000560	0.0004)														
(0.00084	0.000560	0.0004)														
(-0.00096	0.000360	0.0004)														
(-0.00076	0.000360	0.0004)														
(-0.00056	0.000360	0.0004)														
(-0.00036	0.000360	0.0004)														
(-0.00016	0.000360	0.0004)														
(0.00004	0.000360	0.0004)														
(0.00024	0.000360	0.0004)														
(0.00044	0.000360	0.0004)														
(0.00064	0.000360	0.0004)														
(0.00084	0.000360	0.0004)														
(-0.00096	0.000160	0.0004)														
(-0.00076	0.000160	0.0004)														
(-0.00056	0.000160	0.0004)														
(-0.00036	0.000160	0.0004)														
(-0.00016	0.000160	0.0004)														
(0.00004	0.000160	0.0004)														
(0.00024	0.000160	0.0004)														
(0.00044	0.000160	0.0004)														
(0.00064	0.000160	0.0004)														
(0.00084	0.000160	0.0004)														
(-0.00096	-0.000040	0.0004)														
(-0.00076	-0.000040	0.0004)														
(-0.00056	-0.000040	0.0004)														
(-0.00036	-0.000040	0.0004)														
(-0.00016	-0.000040	0.0004)														
(0.00004	-0.000040	0.0004)														
(0.00024	-0.000040	0.0004)														
(0.00044	-0.000040	0.0004)														
(0.00064	-0.000040	0.0004)														
(0.00084	-0.000040	0.0004)														
(-0.00096	-0.000240	0.0004)														
(-0.00076	-0.000240	0.0004)														
(-0.00056	-0.000240	0.0004)														
(-0.00036	-0.000240	0.0004)														
(-0.00016	-0.000240	0.0004)														
(0.00004	-0.000240	0.0004)														
(0.00024	-0.000240	0.0004)														
(0.00044	-0.000240	0.0004)														
(0.00064	-0.000240	0.0004)														
(0.00084	-0.000240	0.0004)														
(-0.00096	-0.000440	0.0004)														
(-0.00076	-0.000440	0.0004)														
(-0.00056	-0.000440	0.0004)														
(-0.00036	-0.000440	0.0004)														
(-0.00016	-0.000440	0.0004)														
(0.00004	-0.000440	0.0004)														
(0.00024	-0.000440	0.0004)														
(0.00044	-0.000440	0.0004)														
(0.00064	-0.000440	0.0004)														
(0.00084	-0.000440	0.0004)														
(-0.00096	-0.000640	0.0004)														
(-0.00076	-0.000640	0.0004)														
(-0.00056	-0.000640	0.0004)														
(-0.00036	-0.000640	0.0004)														
(-0.00016	-0.000640	0.0004)														
(0.00004	-0.000640	0.0004)														
(0.00024	-0.000640	0.0004)														
(0.00044	-0.000640	0.0004)														
(0.00064	-0.000640	0.0004)														
(0.00084	-0.000640	0.0004)														
(-0.00096	-0.000840	0.0004)														
(-0.00076	-0.000840	0.0004)														
(-0.00056	-0.000840	0.0004)														
(-0.00036	-0.000840	0.0004)														
(-0.00016	-0.000840	0.0004)														
(0.00004	-0.000840	0.0004)														
(0.00024	-0.000840	0.0004)														
(0.00044	-0.000840	0.0004)														
(0.00064	-0.000840	0.0004)														
(0.00084	-0.000840	0.0004)														
(-0.00096	0.00096	0.00055)														
(-0.00076	0.00096	0.00055)														
(-0.00056	0.00096	0.00055)														
(-0.00036	0.00096	0.00055)														
(-0.00016	0.00096	0.00055)														
(0.00004	0.00096	0.00055)														
(0.00024	0.00096	0.00055)														
(0.00044	0.00096	0.00055)														
(0.00064	0.00096	0.00055)														
(0.00084	0.00096	0.00055)														
(-0.00096	0.00076	0.00055)														
(-0.00076	0.00076	0.00055)														
(-0.00056	0.00076	0.00055)														
(-0.00036	0.00076	0.00055)														
(-0.00016	0.00076	0.00055)														
(0.00004	0.00076	0.00055)														
(0.00024	0.00076	0.00055)														
(0.00044	0.00076	0.00055)														
(0.00064	0.00076	0.00055)														
(0.00084	0.00076	0.00055)														
(-0.00096	0.00056	0.00055)														
(-0.00076	0.00056	0.00055)														
(-0.00056	0.00056	0.00055)														
(-0.00036	0.00056	0.00055)														
(-0.00016	0.00056	0.00055)														
(0.00004	0.00056	0.00055)														
(0.00024	0.00056	0.00055)														
(0.00044	0.00056	0.00055)														
(0.00064	0.00056	0.00055)														
(0.00084	0.00056	0.00055)														
(-0.00096	0.00036	0.00055)														
(-0.00076	0.00036	0.00055)														
(-0.00056	0.00036	0.00055)														
(-0.00036	0.00036	0.00055)														
(-0.00016	0.00036	0.00055)														
(0.00004	0.00036	0.00055)														
(0.00024	0.00036	0.00055)														
(0.00044	0.00036	0.00055)														
(0.00064	0.00036	0.00055)														
(0.00084	0.00036	0.00055)														
(-0.00096	0.00016	0.00055)														
(-0.00076	0.00016	0.00055)														
(-0.00056	0.00016	0.00055)														
(-0.00036	0.00016	0.00055)														
(-0.00016	0.00016	0.00055)														
(0.00004	0.00016	0.00055)														
(0.00024	0.00016	0.00055)														
(0.00044	0.00016	0.00055)														
(0.00064	0.00016	0.00055)														
(0.00084	0.00016	0.00055)														
(-0.00096	-0.00004	0.00055)														
(-0.00076	-0.00004	0.00055)														
(-0.00056	-0.00004	0.00055)														
(-0.00036	-0.00004	0.00055)														
(-0.00016	-0.00004	0.00055)														
(0.00004	-0.00004	0.00055)														
(0.00024	-0.00004	0.00055)														
(0.00044	-0.00004	0.00055)														
(0.00064	-0.00004	0.00055)														
(0.00084	-0.00004	0.00055)														
(-0.00096	-0.00024	0.00055)														
(-0.00076	-0.00024	0.00055)														
(-0.00056	-0.00024	0.00055)														
(-0.00036	-0.00024	0.00055)														
(-0.00016	-0.00024	0.00055)														
(0.00004	-0.00024	0.00055)														
(0.00024	-0.00024	0.00055)														
(0.00044	-0.00024	0.00055)														
(0.00064	-0.00024	0.00055)														
(0.00084	-0.00024	0.00055)														
(-0.00096	-0.00044	0.00055)														
(-0.00076	-0.00044	0.00055)														
(-0.00056	-0.00044	0.00055)														
(-0.00036	-0.00044	0.00055)														
(-0.00016	-0.00044	0.00055)														
(0.00004	-0.00044	0.00055)														
(0.00024	-0.00044	0.00055)														
(0.00044	-0.00044	0.00055)														
(0.00064	-0.00044	0.00055)														
(0.00084	-0.00044	0.00055)														
(-0.00096	-0.00064	0.00055)														
(-0.00076	-0.00064	0.00055)														
(-0.00056	-0.00064	0.00055)														
(-0.00036	-0.00064	0.00055)														
(-0.00016	-0.00064	0.00055)														
(0.00004	-0.00064	0.00055)														
(0.00024	-0.00064	0.00055)														
(0.00044	-0.00064	0.00055)														
(0.00064	-0.00064	0.00055)														
(0.00084	-0.00064	0.00055)														
(-0.00096	-0.00084	0.00055)														
(-0.00076	-0.00084	0.00055)														
(-0.00056	-0.00084	0.00055)														
(-0.00036	-0.00084	0.00055)														
(-0.00016	-0.00084	0.00055)														
(0.00004	-0.00084	0.00055)														
(0.00024	-0.00084	0.00055)														
(0.00044	-0.00084	0.00055)														
(0.00064	-0.00084	0.00055)														
(0.00084	-0.00084	0.00055)														
(-0.00096	0.00096	0.0007)														
(-0.00076	0.00096	0.0007)														
(-0.00056	0.00096	0.0007)														
(-0.00036	0.00096	0.0007)														
(-0.00016	0.00096	0.0007)														
(0.00004	0.00096	0.0007)														
(0.00024	0.00096	0.0007)														
(0.00044	0.00096	0.0007)														
(0.00064	0.00096	0.0007)														
(0.00084	0.00096	0.0007)														
(-0.00096	0.00076	0.0007)														
(-0.00076	0.00076	0.0007)														
(-0.00056	0.00076	0.0007)														
(-0.00036	0.00076	0.0007)														
(-0.00016	0.00076	0.0007)														
(0.00004	0.00076	0.0007)														
(0.00024	0.00076	0.0007)														
(0.00044	0.00076	0.0007)														
(0.00064	0.00076	0.0007)														
(0.00084	0.00076	0.0007)														
(-0.00096	0.00056	0.0007)														
(-0.00076	0.00056	0.0007)														
(-0.00056	0.00056	0.0007)														
(-0.00036	0.00056	0.0007)														
(-0.00016	0.00056	0.0007)														
(0.00004	0.00056	0.0007)														
(0.00024	0.00056	0.0007)														
(0.00044	0.00056	0.0007)														
(0.00064	0.00056	0.0007)														
(0.00084	0.00056	0.0007)														
(-0.00096	0.00036	0.0007)														
(-0.00076	0.00036	0.0007)														
(-0.00056	0.00036	0.0007)														
(-0.00036	0.00036	0.0007)														
(-0.00016	0.00036	0.0007)														
(0.00004	0.00036	0.0007)														
(0.00024	0.00036	0.0007)														
(0.00044	0.00036	0.0007)														
(0.00064	0.00036	0.0007)														
(0.00084	0.00036	0.0007)														
(-0.00096	0.00016	0.0007)														
(-0.00076	0.00016	0.0007)														
(-0.00056	0.00016	0.0007)														
(-0.00036	0.00016	0.0007)														
(-0.00016	0.00016	0.0007)														
(0.00004	0.00016	0.0007)														
(0.00024	0.00016	0.0007)														
(0.00044	0.00016	0.0007)														
(0.00064	0.00016	0.0007)														
(0.00084	0.00016	0.0007)														
(-0.00096	-0.00004	0.0007)														
(-0.00076	-0.00004	0.0007)														
(-0.00056	-0.00004	0.0007)														
(-0.00036	-0.00004	0.0007)														
(-0.00016	-0.00004	0.0007)														
(0.00004	-0.00004	0.0007)														
(0.00024	-0.00004	0.0007)														
(0.00044	-0.00004	0.0007)														
(0.00064	-0.00004	0.0007)														
(0.00084	-0.00004	0.0007)														
(-0.00096	-0.00024	0.0007)														
(-0.00076	-0.00024	0.0007)														
(-0.00056	-0.00024	0.0007)														
(-0.00036	-0.00024	0.0007)														
(-0.00016	-0.00024	0.0007)														
(0.00004	-0.00024	0.0007)														
(0.00024	-0.00024	0.0007)														
(0.00044	-0.00024	0.0007)														
(0.00064	-0.00024	0.0007)														
(0.00084	-0.00024	0.0007)														
(-0.00096	-0.00044	0.0007)														
(-0.00076	-0.00044	0.0007)														
(-0.00056	-0.00044	0.0007)														
(-0.00036	-0.00044	0.0007)														
(-0.00016	-0.00044	0.0007)														
(0.00004	-0.00044	0.0007)														
(0.00024	-0.00044	0.0007)														
(0.00044	-0.00044	0.0007)														
(0.00064	-0.00044	0.0007)														
(0.00084	-0.00044	0.0007)														
(-0.00096	-0.00064	0.0007)														
(-0.00076	-0.00064	0.0007)														
(-0.00056	-0.00064	0.0007)														
(-0.00036	-0.00064	0.0007)														
(-0.00016	-0.00064	0.0007)														
(0.00004	-0.00064	0.0007)														
(0.00024	-0.00064	0.0007)														
(0.00044	-0.00064	0.0007)														
(0.00064	-0.00064	0.0007)														
(0.00084	-0.00064	0.0007)														
(-0.00096	-0.00084	0.0007)														
(-0.00076	-0.00084	0.0007)														
(-0.00056	-0.00084	0.0007)														
(-0.00036	-0.00084	0.0007)														
(-0.00016	-0.00084	0.0007)														
(0.00004	-0.00084	0.0007)														
(0.00024	-0.00084	0.0007)														
(0.00044	-0.00084	0.0007)														
(0.00064	-0.00084	0.0007)														
(0.00084	-0.00084	0.0007)														
(-0.00096	0.00096	0.00085)														
(-0.00076	0.00096	0.00085)														
(-0.00056	0.00096	0.00085)														
(-0.00036	0.00096	0.00085)														
(-0.00016	0.00096	0.00085)														
(0.00004	0.00096	0.00085)														
(0.00024	0.00096	0.00085)														
(0.00044	0.00096	0.00085)														
(0.00064	0.00096	0.00085)														
(0.00084	0.00096	0.00085)														
(-0.00096	0.00076	0.00085)														
(-0.00076	0.00076	0.00085)														
(-0.00056	0.00076	0.00085)														
(-0.00036	0.00076	0.00085)														
(-0.00016	0.00076	0.00085)														
(0.00004	0.00076	0.00085)														
(0.00024	0.00076	0.00085)														
(0.00044	0.00076	0.00085)														
(0.00064	0.00076	0.00085)														
(0.00084	0.00076	0.00085)														
(-0.00096	0.00056	0.00085)														
(-0.00076	0.00056	0.00085)														
(-0.00056	0.00056	0.00085)														
(-0.00036	0.00056	0.00085)														
(-0.00016	0.00056	0.00085)														
(0.00004	0.00056	0.00085)														
(0.00024	0.00056	0.00085)														
(0.00044	0.00056	0.00085)														
(0.00064	0.00056	0.00085)														
(0.00084	0.00056	0.00085)														
(-0.00096	0.00036	0.00085)														
(-0.00076	0.00036	0.00085)														
(-0.00056	0.00036	0.00085)														
(-0.00036	0.00036	0.00085)														
(-0.00016	0.00036	0.00085)														
(0.00004	0.00036	0.00085)														
(0.00024	0.00036	0.00085)														
(0.00044	0.00036	0.00085)														
(0.00064	0.00036	0.00085)														
(0.00084	0.00036	0.00085)														
(-0.00096	0.00016	0.00085)														
(-0.00076	0.00016	0.00085)														
(-0.00056	0.00016	0.00085)														
(-0.00036	0.00016	0.00085)														
(-0.00016	0.00016	0.00085)														
(0.00004	0.00016	0.00085)														
(0.00024	0.00016	0.00085)														
(0.00044	0.00016	0.00085)														
(0.00064	0.00016	0.00085)														
(0.00084	0.00016	0.00085)														
(-0.00096	-0.00004	0.00085)														
(-0.00076	-0.00004	0.00085)														
(-0.00056	-0.00004	0.00085)														
(-0.00036	-0.00004	0.00085)														
(-0.00016	-0.00004	0.00085)														
(0.00004	-0.00004	0.00085)														
(0.00024	-0.00004	0.00085)														
(0.00044	-0.00004	0.00085)														
(0.00064	-0.00004	0.00085)														
(0.00084	-0.00004	0.00085)														
(-0.00096	-0.00024	0.00085)														
(-0.00076	-0.00024	0.00085)														
(-0.00056	-0.00024	0.00085)														
(-0.00036	-0.00024	0.00085)														
(-0.00016	-0.00024	0.00085)														
(0.00004	-0.00024	0.00085)														
(0.00024	-0.00024	0.00085)														
(0.00044	-0.00024	0.00085)														
(0.00064	-0.00024	0.00085)														
(0.00084	-0.00024	0.00085)														
(-0.00096	-0.00044	0.00085)														
(-0.00076	-0.00044	0.00085)														
(-0.00056	-0.00044	0.00085)														
(-0.00036	-0.00044	0.00085)														
(-0.00016	-0.00044	0.00085)														
(0.00004	-0.00044	0.00085)														
(0.00024	-0.00044	0.00085)														
(0.00044	-0.00044	0.00085)														
(0.00064	-0.00044	0.00085)														
(0.00084	-0.00044	0.00085)														
(-0.00096	-0.00064	0.00085)														
(-0.00076	-0.00064	0.00085)														
(-0.00056	-0.00064	0.00085)														
(-0.00036	-0.00064	0.00085)														
(-0.00016	-0.00064	0.00085)														
(0.00004	-0.00064	0.00085)														
(0.00024	-0.00064	0.00085)														
(0.00044	-0.00064	0.00085)														
(0.00064	-0.00064	0.00085)														
(0.00084	-0.00064	0.00085)														
(-0.00096	-0.00084	0.00085)														
(-0.00076	-0.00084	0.00085)														
(-0.00056	-0.00084	0.00085)														
(-0.00036	-0.00084	0.00085)														
(-0.00016	-0.00084	0.00085)														
(0.00004	-0.00084	0.00085)														
(0.00024	-0.00084	0.00085)														
(0.00044	-0.00084	0.00085)														
(0.00064	-0.00084	0.00085)														
(0.00084	-0.00084	0.00085)														
(-0.00096	0.00096	0.001)														
(-0.00076	0.00096	0.001)														
(-0.00056	0.00096	0.001)														
(-0.00036	0.00096	0.001)														
(-0.00016	0.00096	0.001)														
(0.00004	0.00096	0.001)														
(0.00024	0.00096	0.001)														
(0.00044	0.00096	0.001)														
(0.00064	0.00096	0.001)														
(0.00084	0.00096	0.001)														
(-0.00096	0.00076	0.001)														
(-0.00076	0.00076	0.001)														
(-0.00056	0.00076	0.001)														
(-0.00036	0.00076	0.001)														
(-0.00016	0.00076	0.001)														
(0.00004	0.00076	0.001)														
(0.00024	0.00076	0.001)														
(0.00044	0.00076	0.001)														
(0.00064	0.00076	0.001)														
(0.00084	0.00076	0.001)														
(-0.00096	0.00056	0.001)														
(-0.00076	0.00056	0.001)														
(-0.00056	0.00056	0.001)														
(-0.00036	0.00056	0.001)														
(-0.00016	0.00056	0.001)														
(0.00004	0.00056	0.001)														
(0.00024	0.00056	0.001)														
(0.00044	0.00056	0.001)														
(0.00064	0.00056	0.001)														
(0.00084	0.00056	0.001)														
(-0.00096	0.00036	0.001)														
(-0.00076	0.00036	0.001)														
(-0.00056	0.00036	0.001)														
(-0.00036	0.00036	0.001)														
(-0.00016	0.00036	0.001)														
(0.00004	0.00036	0.001)														
(0.00024	0.00036	0.001)														
(0.00044	0.00036	0.001)														
(0.00064	0.00036	0.001)														
(0.00084	0.00036	0.001)														
(-0.00096	0.00016	0.001)														
(-0.00076	0.00016	0.001)														
(-0.00056	0.00016	0.001)														
(-0.00036	0.00016	0.001)														
(-0.00016	0.00016	0.001)														
(0.00004	0.00016	0.001)														
(0.00024	0.00016	0.001)														
(0.00044	0.00016	0.001)														
(0.00064	0.00016	0.001)														
(0.00084	0.00016	0.001)														
(-0.00096	-0.00004	0.001)														
(-0.00076	-0.00004	0.001)														
(-0.00056	-0.00004	0.001)														
(-0.00036	-0.00004	0.001)														
(-0.00016	-0.00004	0.001)														
(0.00004	-0.00004	0.001)														
(0.00024	-0.00004	0.001)														
(0.00044	-0.00004	0.001)														
(0.00064	-0.00004	0.001)														
(0.00084	-0.00004	0.001)														
(-0.00096	-0.00024	0.001)														
(-0.00076	-0.00024	0.001)														
(-0.00056	-0.00024	0.001)														
(-0.00036	-0.00024	0.001)														
(-0.00016	-0.00024	0.001)														
(0.00004	-0.00024	0.001)														
(0.00024	-0.00024	0.001)														
(0.00044	-0.00024	0.001)														
(0.00064	-0.00024	0.001)														
(0.00084	-0.00024	0.001)														
(-0.00096	-0.00044	0.001)														
(-0.00076	-0.00044	0.001)														
(-0.00056	-0.00044	0.001)														
(-0.00036	-0.00044	0.001)														
(-0.00016	-0.00044	0.001)														
(0.00004	-0.00044	0.001)														
(0.00024	-0.00044	0.001)														
(0.00044	-0.00044	0.001)														
(0.00064	-0.00044	0.001)														
(0.00084	-0.00044	0.001)														
(-0.00096	-0.00064	0.001)														
(-0.00076	-0.00064	0.001)														
(-0.00056	-0.00064	0.001)														
(-0.00036	-0.00064	0.001)														
(-0.00016	-0.00064	0.001)														
(0.00004	-0.00064	0.001)														
(0.00024	-0.00064	0.001)														
(0.00044	-0.00064	0.001)														
(0.00064	-0.00064	0.001)														
(0.00084	-0.00064	0.001)														
(-0.00096	-0.00084	0.001)														
(-0.00076	-0.00084	0.001)														
(-0.00056	-0.00084	0.001)														
(-0.00036	-0.00084	0.001)														
(-0.00016	-0.00084	0.001)														
(0.00004	-0.00084	0.001)														
(0.00024	-0.00084	0.001)														