/*--------------------------------*- C++ -*----------------------------------*\																
  =========                 |																
  \\      /  F ield         | OpenFOAM: The Open Source CFD Toolbox																
   \\    /   O peration     | Website:  https://openfoam.org																
    \\  /    A nd           | Version:  7																
     \\/     M anipulation  |																
\*---------------------------------------------------------------------------*/																
FoamFile																
{																
    version     2.0;																
    format      ascii;																
    class       vectorField;																
    object      kinematicCloudPositions;																
}																
// * * * * * * * * * * * * * * * * * * * * * * * * * * * * * * * * * * * * * //																
																
(																
(-0.00096	0.000960	0.0001)														
(-0.00077	0.000960	0.0001)														
(-0.00058	0.000960	0.0001)														
(-0.00038	0.000960	0.0001)														
(-0.00019	0.000960	0.0001)														
(0	0.000960	0.0001)														
(0.00019	0.000960	0.0001)														
(0.00038	0.000960	0.0001)														
(0.00058	0.000960	0.0001)														
(0.00077	0.000960	0.0001)														
(-0.00096	0.000770	0.0001)														
(-0.00077	0.000770	0.0001)														
(-0.00058	0.000770	0.0001)														
(-0.00038	0.000770	0.0001)														
(-0.00019	0.000770	0.0001)														
(0	0.000770	0.0001)														
(0.00019	0.000770	0.0001)														
(0.00038	0.000770	0.0001)														
(0.00058	0.000770	0.0001)														
(0.00077	0.000770	0.0001)														
(-0.00096	0.000580	0.0001)														
(-0.00077	0.000580	0.0001)														
(-0.00058	0.000580	0.0001)														
(-0.00038	0.000580	0.0001)														
(-0.00019	0.000580	0.0001)														
(0	0.000580	0.0001)														
(0.00019	0.000580	0.0001)														
(0.00038	0.000580	0.0001)														
(0.00058	0.000580	0.0001)														
(0.00077	0.000580	0.0001)														
(-0.00096	0.000380	0.0001)														
(-0.00077	0.000380	0.0001)														
(-0.00058	0.000380	0.0001)														
(-0.00038	0.000380	0.0001)														
(-0.00019	0.000380	0.0001)														
(0	0.000380	0.0001)														
(0.00019	0.000380	0.0001)														
(0.00038	0.000380	0.0001)														
(0.00058	0.000380	0.0001)														
(0.00077	0.000380	0.0001)														
(-0.00096	0.000190	0.0001)														
(-0.00077	0.000190	0.0001)														
(-0.00058	0.000190	0.0001)														
(-0.00038	0.000190	0.0001)														
(-0.00019	0.000190	0.0001)														
(0	0.000190	0.0001)														
(0.00019	0.000190	0.0001)														
(0.00038	0.000190	0.0001)														
(0.00058	0.000190	0.0001)														
(0.00077	0.000190	0.0001)														
(-0.00096	0.000000	0.0001)														
(-0.00077	0.000000	0.0001)														
(-0.00058	0.000000	0.0001)														
(-0.00038	0.000000	0.0001)														
(-0.00019	0.000000	0.0001)														
(0	0.000000	0.0001)														
(0.00019	0.000000	0.0001)														
(0.00038	0.000000	0.0001)														
(0.00058	0.000000	0.0001)														
(0.00077	0.000000	0.0001)														
(-0.00096	-0.000190	0.0001)														
(-0.00077	-0.000190	0.0001)														
(-0.00058	-0.000190	0.0001)														
(-0.00038	-0.000190	0.0001)														
(-0.00019	-0.000190	0.0001)														
(0	-0.000190	0.0001)														
(0.00019	-0.000190	0.0001)														
(0.00038	-0.000190	0.0001)														
(0.00058	-0.000190	0.0001)														
(0.00077	-0.000190	0.0001)														
(-0.00096	-0.000380	0.0001)														
(-0.00077	-0.000380	0.0001)														
(-0.00058	-0.000380	0.0001)														
(-0.00038	-0.000380	0.0001)														
(-0.00019	-0.000380	0.0001)														
(0	-0.000380	0.0001)														
(0.00019	-0.000380	0.0001)														
(0.00038	-0.000380	0.0001)														
(0.00058	-0.000380	0.0001)														
(0.00077	-0.000380	0.0001)														
(-0.00096	-0.000580	0.0001)														
(-0.00077	-0.000580	0.0001)														
(-0.00058	-0.000580	0.0001)														
(-0.00038	-0.000580	0.0001)														
(-0.00019	-0.000580	0.0001)														
(0	-0.000580	0.0001)														
(0.00019	-0.000580	0.0001)														
(0.00038	-0.000580	0.0001)														
(0.00058	-0.000580	0.0001)														
(0.00077	-0.000580	0.0001)														
(-0.00096	-0.000770	0.0001)														
(-0.00077	-0.000770	0.0001)														
(-0.00058	-0.000770	0.0001)														
(-0.00038	-0.000770	0.0001)														
(-0.00019	-0.000770	0.0001)														
(0	-0.000770	0.0001)														
(0.00019	-0.000770	0.0001)														
(0.00038	-0.000770	0.0001)														
(0.00058	-0.000770	0.0001)														
(0.00077	-0.000770	0.0001)														
(-0.00096	0.000960	0.00023)														
(-0.00077	0.000960	0.00023)														
(-0.00058	0.000960	0.00023)														
(-0.00038	0.000960	0.00023)														
(-0.00019	0.000960	0.00023)														
(0	0.000960	0.00023)														
(0.00019	0.000960	0.00023)														
(0.00038	0.000960	0.00023)														
(0.00058	0.000960	0.00023)														
(0.00077	0.000960	0.00023)														
(-0.00096	0.000770	0.00023)														
(-0.00077	0.000770	0.00023)														
(-0.00058	0.000770	0.00023)														
(-0.00038	0.000770	0.00023)														
(-0.00019	0.000770	0.00023)														
(0	0.000770	0.00023)														
(0.00019	0.000770	0.00023)														
(0.00038	0.000770	0.00023)														
(0.00058	0.000770	0.00023)														
(0.00077	0.000770	0.00023)														
(-0.00096	0.000580	0.00023)														
(-0.00077	0.000580	0.00023)														
(-0.00058	0.000580	0.00023)														
(-0.00038	0.000580	0.00023)														
(-0.00019	0.000580	0.00023)														
(0	0.000580	0.00023)														
(0.00019	0.000580	0.00023)														
(0.00038	0.000580	0.00023)														
(0.00058	0.000580	0.00023)														
(0.00077	0.000580	0.00023)														
(-0.00096	0.000380	0.00023)														
(-0.00077	0.000380	0.00023)														
(-0.00058	0.000380	0.00023)														
(-0.00038	0.000380	0.00023)														
(-0.00019	0.000380	0.00023)														
(0	0.000380	0.00023)														
(0.00019	0.000380	0.00023)														
(0.00038	0.000380	0.00023)														
(0.00058	0.000380	0.00023)														
(0.00077	0.000380	0.00023)														
(-0.00096	0.000190	0.00023)														
(-0.00077	0.000190	0.00023)														
(-0.00058	0.000190	0.00023)														
(-0.00038	0.000190	0.00023)														
(-0.00019	0.000190	0.00023)														
(0	0.000190	0.00023)														
(0.00019	0.000190	0.00023)														
(0.00038	0.000190	0.00023)														
(0.00058	0.000190	0.00023)														
(0.00077	0.000190	0.00023)														
(-0.00096	0.000000	0.00023)														
(-0.00077	0.000000	0.00023)														
(-0.00058	0.000000	0.00023)														
(-0.00038	0.000000	0.00023)														
(-0.00019	0.000000	0.00023)														
(0	0.000000	0.00023)														
(0.00019	0.000000	0.00023)														
(0.00038	0.000000	0.00023)														
(0.00058	0.000000	0.00023)														
(0.00077	0.000000	0.00023)														
(-0.00096	-0.000190	0.00023)														
(-0.00077	-0.000190	0.00023)														
(-0.00058	-0.000190	0.00023)														
(-0.00038	-0.000190	0.00023)														
(-0.00019	-0.000190	0.00023)														
(0	-0.000190	0.00023)														
(0.00019	-0.000190	0.00023)														
(0.00038	-0.000190	0.00023)														
(0.00058	-0.000190	0.00023)														
(0.00077	-0.000190	0.00023)														
(-0.00096	-0.000380	0.00023)														
(-0.00077	-0.000380	0.00023)														
(-0.00058	-0.000380	0.00023)														
(-0.00038	-0.000380	0.00023)														
(-0.00019	-0.000380	0.00023)														
(0	-0.000380	0.00023)														
(0.00019	-0.000380	0.00023)														
(0.00038	-0.000380	0.00023)														
(0.00058	-0.000380	0.00023)														
(0.00077	-0.000380	0.00023)														
(-0.00096	-0.000580	0.00023)														
(-0.00077	-0.000580	0.00023)														
(-0.00058	-0.000580	0.00023)														
(-0.00038	-0.000580	0.00023)														
(-0.00019	-0.000580	0.00023)														
(0	-0.000580	0.00023)														
(0.00019	-0.000580	0.00023)														
(0.00038	-0.000580	0.00023)														
(0.00058	-0.000580	0.00023)														
(0.00077	-0.000580	0.00023)														
(-0.00096	-0.000770	0.00023)														
(-0.00077	-0.000770	0.00023)														
(-0.00058	-0.000770	0.00023)														
(-0.00038	-0.000770	0.00023)														
(-0.00019	-0.000770	0.00023)														
(0	-0.000770	0.00023)														
(0.00019	-0.000770	0.00023)														
(0.00038	-0.000770	0.00023)														
(0.00058	-0.000770	0.00023)														
(0.00077	-0.000770	0.00023)														
(-0.00096	0.000960	0.00035)														
(-0.00077	0.000960	0.00035)														
(-0.00058	0.000960	0.00035)														
(-0.00038	0.000960	0.00035)														
(-0.00019	0.000960	0.00035)														
(0	0.000960	0.00035)														
(0.00019	0.000960	0.00035)														
(0.00038	0.000960	0.00035)														
(0.00058	0.000960	0.00035)														
(0.00077	0.000960	0.00035)														
(-0.00096	0.000770	0.00035)														
(-0.00077	0.000770	0.00035)														
(-0.00058	0.000770	0.00035)														
(-0.00038	0.000770	0.00035)														
(-0.00019	0.000770	0.00035)														
(0	0.000770	0.00035)														
(0.00019	0.000770	0.00035)														
(0.00038	0.000770	0.00035)														
(0.00058	0.000770	0.00035)														
(0.00077	0.000770	0.00035)														
(-0.00096	0.000580	0.00035)														
(-0.00077	0.000580	0.00035)														
(-0.00058	0.000580	0.00035)														
(-0.00038	0.000580	0.00035)														
(-0.00019	0.000580	0.00035)														
(0	0.000580	0.00035)														
(0.00019	0.000580	0.00035)														
(0.00038	0.000580	0.00035)														
(0.00058	0.000580	0.00035)														
(0.00077	0.000580	0.00035)														
(-0.00096	0.000380	0.00035)														
(-0.00077	0.000380	0.00035)														
(-0.00058	0.000380	0.00035)														
(-0.00038	0.000380	0.00035)														
(-0.00019	0.000380	0.00035)														
(0	0.000380	0.00035)														
(0.00019	0.000380	0.00035)														
(0.00038	0.000380	0.00035)														
(0.00058	0.000380	0.00035)														
(0.00077	0.000380	0.00035)														
(-0.00096	0.000190	0.00035)														
(-0.00077	0.000190	0.00035)														
(-0.00058	0.000190	0.00035)														
(-0.00038	0.000190	0.00035)														
(-0.00019	0.000190	0.00035)														
(0	0.000190	0.00035)														
(0.00019	0.000190	0.00035)														
(0.00038	0.000190	0.00035)														
(0.00058	0.000190	0.00035)														
(0.00077	0.000190	0.00035)														
(-0.00096	0.000000	0.00035)														
(-0.00077	0.000000	0.00035)														
(-0.00058	0.000000	0.00035)														
(-0.00038	0.000000	0.00035)														
(-0.00019	0.000000	0.00035)														
(0	0.000000	0.00035)														
(0.00019	0.000000	0.00035)														
(0.00038	0.000000	0.00035)														
(0.00058	0.000000	0.00035)														
(0.00077	0.000000	0.00035)														
(-0.00096	-0.000190	0.00035)														
(-0.00077	-0.000190	0.00035)														
(-0.00058	-0.000190	0.00035)														
(-0.00038	-0.000190	0.00035)														
(-0.00019	-0.000190	0.00035)														
(0	-0.000190	0.00035)														
(0.00019	-0.000190	0.00035)														
(0.00038	-0.000190	0.00035)														
(0.00058	-0.000190	0.00035)														
(0.00077	-0.000190	0.00035)														
(-0.00096	-0.000380	0.00035)														
(-0.00077	-0.000380	0.00035)														
(-0.00058	-0.000380	0.00035)														
(-0.00038	-0.000380	0.00035)														
(-0.00019	-0.000380	0.00035)														
(0	-0.000380	0.00035)														
(0.00019	-0.000380	0.00035)														
(0.00038	-0.000380	0.00035)														
(0.00058	-0.000380	0.00035)														
(0.00077	-0.000380	0.00035)														
(-0.00096	-0.000580	0.00035)														
(-0.00077	-0.000580	0.00035)														
(-0.00058	-0.000580	0.00035)														
(-0.00038	-0.000580	0.00035)														
(-0.00019	-0.000580	0.00035)														
(0	-0.000580	0.00035)														
(0.00019	-0.000580	0.00035)														
(0.00038	-0.000580	0.00035)														
(0.00058	-0.000580	0.00035)														
(0.00077	-0.000580	0.00035)														
(-0.00096	-0.000770	0.00035)														
(-0.00077	-0.000770	0.00035)														
(-0.00058	-0.000770	0.00035)														
(-0.00038	-0.000770	0.00035)														
(-0.00019	-0.000770	0.00035)														
(0	-0.000770	0.00035)														
(0.00019	-0.000770	0.00035)														
(0.00038	-0.000770	0.00035)														
(0.00058	-0.000770	0.00035)														
(0.00077	-0.000770	0.00035)														
)																
																
//	*************************************************************************	//