/*--------------------------------*-	C++	-*----------------------------------*\																																				
	=========	|																																				
	\\	/	F	ield	|	OpenFOAM:	The	Open	Source	CFD	Toolbox																											
	\\	/	O	peration	|	Website:	https://openfoam.org																															
	\\	/	A	nd	|	Version:	7																															
	\\/	M	anipulation	|																																		
\*---------------------------------------------------------------------------*/																																						
FoamFile																																						
{																																						
	version	2.0;																																				
	format	ascii;																																				
	class	vectorField;																																				
	object	kinematicCloudPositions;																																				
}																																						
//	*	*	*	*	*	*	*	*	*	*	*	*	*	*	*	*	*	*	*	*	*	*	*	*	*	*	*	*	*	*	*	*	*	*	*	*	*	//
																																						
																																						
	(-0.0014	-0.0014	0.00002)																																			
	(-0.0007	-0.0014	0.00002)																																			
	(0	-0.0014	0.00002)																																			
	(0.0007	-0.0014	0.00002)																																			
	(0.0014	-0.0014	0.00002)																																			
	(-0.0014	-0.001342857	0.00002)																																			
	(-0.0007	-0.001342857	0.00002)																																			
	(0	-0.001342857	0.00002)																																			
	(0.0007	-0.001342857	0.00002)																																			
	(0.0014	-0.001342857	0.00002)																																			
	(-0.0014	-0.001285714	0.00002)																																			
	(-0.0007	-0.001285714	0.00002)																																			
	(0	-0.001285714	0.00002)																																			
	(0.0007	-0.001285714	0.00002)																																			
	(0.0014	-0.001285714	0.00002)																																			
	(-0.0014	-0.001228571	0.00002)																																			
	(-0.0007	-0.001228571	0.00002)																																			
	(0	-0.001228571	0.00002)																																			
	(0.0007	-0.001228571	0.00002)																																			
	(0.0014	-0.001228571	0.00002)																																			
	(-0.0014	-0.001171429	0.00002)																																			
	(-0.0007	-0.001171429	0.00002)																																			
	(0	-0.001171429	0.00002)																																			
	(0.0007	-0.001171429	0.00002)																																			
	(0.0014	-0.001171429	0.00002)																																			
	(-0.0014	-0.001114286	0.00002)																																			
	(-0.0007	-0.001114286	0.00002)																																			
	(0	-0.001114286	0.00002)																																			
	(0.0007	-0.001114286	0.00002)																																			
	(0.0014	-0.001114286	0.00002)																																			
	(-0.0014	-0.001057143	0.00002)																																			
	(-0.0007	-0.001057143	0.00002)																																			
	(0	-0.001057143	0.00002)																																			
	(0.0007	-0.001057143	0.00002)																																			
	(0.0014	-0.001057143	0.00002)																																			
	(-0.0014	-0.001	0.00002)																																			
	(-0.0007	-0.001	0.00002)																																			
	(0	-0.001	0.00002)																																			
	(0.0007	-0.001	0.00002)																																			
	(0.0014	-0.001	0.00002)																																			
	(-0.0014	-0.000942857	0.00002)																																			
	(-0.0007	-0.000942857	0.00002)																																			
	(0	-0.000942857	0.00002)																																			
	(0.0007	-0.000942857	0.00002)																																			
	(0.0014	-0.000942857	0.00002)																																			
	(-0.0014	-0.000885714	0.00002)																																			
	(-0.0007	-0.000885714	0.00002)																																			
	(0	-0.000885714	0.00002)																																			
	(0.0007	-0.000885714	0.00002)																																			
	(0.0014	-0.000885714	0.00002)																																			
	(-0.0014	-0.000828571	0.00002)																																			
	(-0.0007	-0.000828571	0.00002)																																			
	(0	-0.000828571	0.00002)																																			
	(0.0007	-0.000828571	0.00002)																																			
	(0.0014	-0.000828571	0.00002)																																			
	(-0.0014	-0.000771429	0.00002)																																			
	(-0.0007	-0.000771429	0.00002)																																			
	(0	-0.000771429	0.00002)																																			
	(0.0007	-0.000771429	0.00002)																																			
	(0.0014	-0.000771429	0.00002)																																			
	(-0.0014	-0.000714286	0.00002)																																			
	(-0.0007	-0.000714286	0.00002)																																			
	(0	-0.000714286	0.00002)																																			
	(0.0007	-0.000714286	0.00002)																																			
	(0.0014	-0.000714286	0.00002)																																			
	(-0.0014	-0.000657143	0.00002)																																			
	(-0.0007	-0.000657143	0.00002)																																			
	(0	-0.000657143	0.00002)																																			
	(0.0007	-0.000657143	0.00002)																																			
	(0.0014	-0.000657143	0.00002)																																			
	(-0.0014	-0.0006	0.00002)																																			
	(-0.0007	-0.0006	0.00002)																																			
	(0	-0.0006	0.00002)																																			
	(0.0007	-0.0006	0.00002)																																			
	(0.0014	-0.0006	0.00002)																																			
	(-0.0014	-0.000542857	0.00002)																																			
	(-0.0007	-0.000542857	0.00002)																																			
	(0	-0.000542857	0.00002)																																			
	(0.0007	-0.000542857	0.00002)																																			
	(0.0014	-0.000542857	0.00002)																																			
	(-0.0014	-0.000485714	0.00002)																																			
	(-0.0007	-0.000485714	0.00002)																																			
	(0	-0.000485714	0.00002)																																			
	(0.0007	-0.000485714	0.00002)																																			
	(0.0014	-0.000485714	0.00002)																																			
	(-0.0014	-0.000428571	0.00002)																																			
	(-0.0007	-0.000428571	0.00002)																																			
	(0	-0.000428571	0.00002)																																			
	(0.0007	-0.000428571	0.00002)																																			
	(0.0014	-0.000428571	0.00002)																																			
	(-0.0014	-0.000371429	0.00002)																																			
	(-0.0007	-0.000371429	0.00002)																																			
	(0	-0.000371429	0.00002)																																			
	(0.0007	-0.000371429	0.00002)																																			
	(0.0014	-0.000371429	0.00002)																																			
	(-0.0014	-0.000314286	0.00002)																																			
	(-0.0007	-0.000314286	0.00002)																																			
	(0	-0.000314286	0.00002)																																			
	(0.0007	-0.000314286	0.00002)																																			
	(0.0014	-0.000314286	0.00002)																																			
	(-0.0014	-0.000257143	0.00002)																																			
	(-0.0007	-0.000257143	0.00002)																																			
	(0	-0.000257143	0.00002)																																			
	(0.0007	-0.000257143	0.00002)																																			
	(0.0014	-0.000257143	0.00002)																																			
	(-0.0014	-0.0002	0.00002)																																			
	(-0.0007	-0.0002	0.00002)																																			
	(0	-0.0002	0.00002)																																			
	(0.0007	-0.0002	0.00002)																																			
	(0.0014	-0.0002	0.00002)																																			
	(-0.0014	-0.000142857	0.00002)																																			
	(-0.0007	-0.000142857	0.00002)																																			
	(0	-0.000142857	0.00002)																																			
	(0.0007	-0.000142857	0.00002)																																			
	(0.0014	-0.000142857	0.00002)																																			
	(-0.0014	-8.57E-05	0.00002)																																			
	(-0.0007	-8.57E-05	0.00002)																																			
	(0	-8.57E-05	0.00002)																																			
	(0.0007	-8.57E-05	0.00002)																																			
	(0.0014	-8.57E-05	0.00002)																																			
	(-0.0014	-2.86E-05	0.00002)																																			
	(-0.0007	-2.86E-05	0.00002)																																			
	(0	-2.86E-05	0.00002)																																			
	(0.0007	-2.86E-05	0.00002)																																			
	(0.0014	-2.86E-05	0.00002)																																			
	(-0.0014	2.86E-05	0.00002)																																			
	(-0.0007	2.86E-05	0.00002)																																			
	(0	2.86E-05	0.00002)																																			
	(0.0007	2.86E-05	0.00002)																																			
	(0.0014	2.86E-05	0.00002)																																			
	(-0.0014	8.57E-05	0.00002)																																			
	(-0.0007	8.57E-05	0.00002)																																			
	(0	8.57E-05	0.00002)																																			
	(0.0007	8.57E-05	0.00002)																																			
	(0.0014	8.57E-05	0.00002)																																			
	(-0.0014	0.000142857	0.00002)																																			
	(-0.0007	0.000142857	0.00002)																																			
	(0	0.000142857	0.00002)																																			
	(0.0007	0.000142857	0.00002)																																			
	(0.0014	0.000142857	0.00002)																																			
	(-0.0014	0.0002	0.00002)																																			
	(-0.0007	0.0002	0.00002)																																			
	(0	0.0002	0.00002)																																			
	(0.0007	0.0002	0.00002)																																			
	(0.0014	0.0002	0.00002)																																			
	(-0.0014	0.000257143	0.00002)																																			
	(-0.0007	0.000257143	0.00002)																																			
	(0	0.000257143	0.00002)																																			
	(0.0007	0.000257143	0.00002)																																			
	(0.0014	0.000257143	0.00002)																																			
	(-0.0014	0.000314286	0.00002)																																			
	(-0.0007	0.000314286	0.00002)																																			
	(0	0.000314286	0.00002)																																			
	(0.0007	0.000314286	0.00002)																																			
	(0.0014	0.000314286	0.00002)																																			
	(-0.0014	0.000371429	0.00002)																																			
	(-0.0007	0.000371429	0.00002)																																			
	(0	0.000371429	0.00002)																																			
	(0.0007	0.000371429	0.00002)																																			
	(0.0014	0.000371429	0.00002)																																			
	(-0.0014	0.000428571	0.00002)																																			
	(-0.0007	0.000428571	0.00002)																																			
	(0	0.000428571	0.00002)																																			
	(0.0007	0.000428571	0.00002)																																			
	(0.0014	0.000428571	0.00002)																																			
	(-0.0014	0.000485714	0.00002)																																			
	(-0.0007	0.000485714	0.00002)																																			
	(0	0.000485714	0.00002)																																			
	(0.0007	0.000485714	0.00002)																																			
	(0.0014	0.000485714	0.00002)																																			
	(-0.0014	0.000542857	0.00002)																																			
	(-0.0007	0.000542857	0.00002)																																			
	(0	0.000542857	0.00002)																																			
	(0.0007	0.000542857	0.00002)																																			
	(0.0014	0.000542857	0.00002)																																			
	(-0.0014	0.0006	0.00002)																																			
	(-0.0007	0.0006	0.00002)																																			
	(0	0.0006	0.00002)																																			
	(0.0007	0.0006	0.00002)																																			
	(0.0014	0.0006	0.00002)																																			
	(-0.0014	0.000657143	0.00002)																																			
	(-0.0007	0.000657143	0.00002)																																			
	(0	0.000657143	0.00002)																																			
	(0.0007	0.000657143	0.00002)																																			
	(0.0014	0.000657143	0.00002)																																			
	(-0.0014	0.000714286	0.00002)																																			
	(-0.0007	0.000714286	0.00002)																																			
	(0	0.000714286	0.00002)																																			
	(0.0007	0.000714286	0.00002)																																			
	(0.0014	0.000714286	0.00002)																																			
	(-0.0014	0.000771429	0.00002)																																			
	(-0.0007	0.000771429	0.00002)																																			
	(0	0.000771429	0.00002)																																			
	(0.0007	0.000771429	0.00002)																																			
	(0.0014	0.000771429	0.00002)																																			
	(-0.0014	0.000828571	0.00002)																																			
	(-0.0007	0.000828571	0.00002)																																			
	(0	0.000828571	0.00002)																																			
	(0.0007	0.000828571	0.00002)																																			
	(0.0014	0.000828571	0.00002)																																			
	(-0.0014	0.000885714	0.00002)																																			
	(-0.0007	0.000885714	0.00002)																																			
	(0	0.000885714	0.00002)																																			
	(0.0007	0.000885714	0.00002)																																			
	(0.0014	0.000885714	0.00002)																																			
	(-0.0014	0.000942857	0.00002)																																			
	(-0.0007	0.000942857	0.00002)																																			
	(0	0.000942857	0.00002)																																			
	(0.0007	0.000942857	0.00002)																																			
	(0.0014	0.000942857	0.00002)																																			
	(-0.0014	0.001	0.00002)																																			
	(-0.0007	0.001	0.00002)																																			
	(0	0.001	0.00002)																																			
	(0.0007	0.001	0.00002)																																			
	(0.0014	0.001	0.00002)																																			
	(-0.0014	0.001057143	0.00002)																																			
	(-0.0007	0.001057143	0.00002)																																			
	(0	0.001057143	0.00002)																																			
	(0.0007	0.001057143	0.00002)																																			
	(0.0014	0.001057143	0.00002)																																			
	(-0.0014	0.001114286	0.00002)																																			
	(-0.0007	0.001114286	0.00002)																																			
	(0	0.001114286	0.00002)																																			
	(0.0007	0.001114286	0.00002)																																			
	(0.0014	0.001114286	0.00002)																																			
	(-0.0014	0.001171429	0.00002)																																			
	(-0.0007	0.001171429	0.00002)																																			
	(0	0.001171429	0.00002)																																			
	(0.0007	0.001171429	0.00002)																																			
	(0.0014	0.001171429	0.00002)																																			
	(-0.0014	0.001228571	0.00002)																																			
	(-0.0007	0.001228571	0.00002)																																			
	(0	0.001228571	0.00002)																																			
	(0.0007	0.001228571	0.00002)																																			
	(0.0014	0.001228571	0.00002)																																			
	(-0.0014	0.001285714	0.00002)																																			
	(-0.0007	0.001285714	0.00002)																																			
	(0	0.001285714	0.00002)																																			
	(0.0007	0.001285714	0.00002)																																			
	(0.0014	0.001285714	0.00002)																																			
	(-0.0014	0.001342857	0.00002)																																			
	(-0.0007	0.001342857	0.00002)																																			
	(0	0.001342857	0.00002)																																			
	(0.0007	0.001342857	0.00002)																																			
	(0.0014	0.001342857	0.00002)																																			
	(-0.0014	0.0014	0.00002)																																			
	(-0.0007	0.0014	0.00002)																																			
	(0	0.0014	0.00002)																																			
	(0.0007	0.0014	0.00002)																																			
	(0.0014	0.0014	0.00002)																																			
	(-0.0014	-0.0014	0.00007)																																			
	(-0.0007	-0.0014	0.00007)																																			
	(0	-0.0014	0.00007)																																			
	(0.0007	-0.0014	0.00007)																																			
	(0.0014	-0.0014	0.00007)																																			
	(-0.0014	-0.001342857	0.00007)																																			
	(-0.0007	-0.001342857	0.00007)																																			
	(0	-0.001342857	0.00007)																																			
	(0.0007	-0.001342857	0.00007)																																			
	(0.0014	-0.001342857	0.00007)																																			
	(-0.0014	-0.001285714	0.00007)																																			
	(-0.0007	-0.001285714	0.00007)																																			
	(0	-0.001285714	0.00007)																																			
	(0.0007	-0.001285714	0.00007)																																			
	(0.0014	-0.001285714	0.00007)																																			
	(-0.0014	-0.001228571	0.00007)																																			
	(-0.0007	-0.001228571	0.00007)																																			
	(0	-0.001228571	0.00007)																																			
	(0.0007	-0.001228571	0.00007)																																			
	(0.0014	-0.001228571	0.00007)																																			
	(-0.0014	-0.001171429	0.00007)																																			
	(-0.0007	-0.001171429	0.00007)																																			
	(0	-0.001171429	0.00007)																																			
	(0.0007	-0.001171429	0.00007)																																			
	(0.0014	-0.001171429	0.00007)																																			
	(-0.0014	-0.001114286	0.00007)																																			
	(-0.0007	-0.001114286	0.00007)																																			
	(0	-0.001114286	0.00007)																																			
	(0.0007	-0.001114286	0.00007)																																			
	(0.0014	-0.001114286	0.00007)																																			
	(-0.0014	-0.001057143	0.00007)																																			
	(-0.0007	-0.001057143	0.00007)																																			
	(0	-0.001057143	0.00007)																																			
	(0.0007	-0.001057143	0.00007)																																			
	(0.0014	-0.001057143	0.00007)																																			
	(-0.0014	-0.001	0.00007)																																			
	(-0.0007	-0.001	0.00007)																																			
	(0	-0.001	0.00007)																																			
	(0.0007	-0.001	0.00007)																																			
	(0.0014	-0.001	0.00007)																																			
	(-0.0014	-0.000942857	0.00007)																																			
	(-0.0007	-0.000942857	0.00007)																																			
	(0	-0.000942857	0.00007)																																			
	(0.0007	-0.000942857	0.00007)																																			
	(0.0014	-0.000942857	0.00007)																																			
	(-0.0014	-0.000885714	0.00007)																																			
	(-0.0007	-0.000885714	0.00007)																																			
	(0	-0.000885714	0.00007)																																			
	(0.0007	-0.000885714	0.00007)																																			
	(0.0014	-0.000885714	0.00007)																																			
	(-0.0014	-0.000828571	0.00007)																																			
	(-0.0007	-0.000828571	0.00007)																																			
	(0	-0.000828571	0.00007)																																			
	(0.0007	-0.000828571	0.00007)																																			
	(0.0014	-0.000828571	0.00007)																																			
	(-0.0014	-0.000771429	0.00007)																																			
	(-0.0007	-0.000771429	0.00007)																																			
	(0	-0.000771429	0.00007)																																			
	(0.0007	-0.000771429	0.00007)																																			
	(0.0014	-0.000771429	0.00007)																																			
	(-0.0014	-0.000714286	0.00007)																																			
	(-0.0007	-0.000714286	0.00007)																																			
	(0	-0.000714286	0.00007)																																			
	(0.0007	-0.000714286	0.00007)																																			
	(0.0014	-0.000714286	0.00007)																																			
	(-0.0014	-0.000657143	0.00007)																																			
	(-0.0007	-0.000657143	0.00007)																																			
	(0	-0.000657143	0.00007)																																			
	(0.0007	-0.000657143	0.00007)																																			
	(0.0014	-0.000657143	0.00007)																																			
	(-0.0014	-0.0006	0.00007)																																			
	(-0.0007	-0.0006	0.00007)																																			
	(0	-0.0006	0.00007)																																			
	(0.0007	-0.0006	0.00007)																																			
	(0.0014	-0.0006	0.00007)																																			
	(-0.0014	-0.000542857	0.00007)																																			
	(-0.0007	-0.000542857	0.00007)																																			
	(0	-0.000542857	0.00007)																																			
	(0.0007	-0.000542857	0.00007)																																			
	(0.0014	-0.000542857	0.00007)																																			
	(-0.0014	-0.000485714	0.00007)																																			
	(-0.0007	-0.000485714	0.00007)																																			
	(0	-0.000485714	0.00007)																																			
	(0.0007	-0.000485714	0.00007)																																			
	(0.0014	-0.000485714	0.00007)																																			
	(-0.0014	-0.000428571	0.00007)																																			
	(-0.0007	-0.000428571	0.00007)																																			
	(0	-0.000428571	0.00007)																																			
	(0.0007	-0.000428571	0.00007)																																			
	(0.0014	-0.000428571	0.00007)																																			
	(-0.0014	-0.000371429	0.00007)																																			
	(-0.0007	-0.000371429	0.00007)																																			
	(0	-0.000371429	0.00007)																																			
	(0.0007	-0.000371429	0.00007)																																			
	(0.0014	-0.000371429	0.00007)																																			
	(-0.0014	-0.000314286	0.00007)																																			
	(-0.0007	-0.000314286	0.00007)																																			
	(0	-0.000314286	0.00007)																																			
	(0.0007	-0.000314286	0.00007)																																			
	(0.0014	-0.000314286	0.00007)																																			
	(-0.0014	-0.000257143	0.00007)																																			
	(-0.0007	-0.000257143	0.00007)																																			
	(0	-0.000257143	0.00007)																																			
	(0.0007	-0.000257143	0.00007)																																			
	(0.0014	-0.000257143	0.00007)																																			
	(-0.0014	-0.0002	0.00007)																																			
	(-0.0007	-0.0002	0.00007)																																			
	(0	-0.0002	0.00007)																																			
	(0.0007	-0.0002	0.00007)																																			
	(0.0014	-0.0002	0.00007)																																			
	(-0.0014	-0.000142857	0.00007)																																			
	(-0.0007	-0.000142857	0.00007)																																			
	(0	-0.000142857	0.00007)																																			
	(0.0007	-0.000142857	0.00007)																																			
	(0.0014	-0.000142857	0.00007)																																			
	(-0.0014	-8.57E-05	0.00007)																																			
	(-0.0007	-8.57E-05	0.00007)																																			
	(0	-8.57E-05	0.00007)																																			
	(0.0007	-8.57E-05	0.00007)																																			
	(0.0014	-8.57E-05	0.00007)																																			
	(-0.0014	-2.86E-05	0.00007)																																			
	(-0.0007	-2.86E-05	0.00007)																																			
	(0	-2.86E-05	0.00007)																																			
	(0.0007	-2.86E-05	0.00007)																																			
	(0.0014	-2.86E-05	0.00007)																																			
	(-0.0014	2.86E-05	0.00007)																																			
	(-0.0007	2.86E-05	0.00007)																																			
	(0	2.86E-05	0.00007)																																			
	(0.0007	2.86E-05	0.00007)																																			
	(0.0014	2.86E-05	0.00007)																																			
	(-0.0014	8.57E-05	0.00007)																																			
	(-0.0007	8.57E-05	0.00007)																																			
	(0	8.57E-05	0.00007)																																			
	(0.0007	8.57E-05	0.00007)																																			
	(0.0014	8.57E-05	0.00007)																																			
	(-0.0014	0.000142857	0.00007)																																			
	(-0.0007	0.000142857	0.00007)																																			
	(0	0.000142857	0.00007)																																			
	(0.0007	0.000142857	0.00007)																																			
	(0.0014	0.000142857	0.00007)																																			
	(-0.0014	0.0002	0.00007)																																			
	(-0.0007	0.0002	0.00007)																																			
	(0	0.0002	0.00007)																																			
	(0.0007	0.0002	0.00007)																																			
	(0.0014	0.0002	0.00007)																																			
	(-0.0014	0.000257143	0.00007)																																			
	(-0.0007	0.000257143	0.00007)																																			
	(0	0.000257143	0.00007)																																			
	(0.0007	0.000257143	0.00007)																																			
	(0.0014	0.000257143	0.00007)																																			
	(-0.0014	0.000314286	0.00007)																																			
	(-0.0007	0.000314286	0.00007)																																			
	(0	0.000314286	0.00007)																																			
	(0.0007	0.000314286	0.00007)																																			
	(0.0014	0.000314286	0.00007)																																			
	(-0.0014	0.000371429	0.00007)																																			
	(-0.0007	0.000371429	0.00007)																																			
	(0	0.000371429	0.00007)																																			
	(0.0007	0.000371429	0.00007)																																			
	(0.0014	0.000371429	0.00007)																																			
	(-0.0014	0.000428571	0.00007)																																			
	(-0.0007	0.000428571	0.00007)																																			
	(0	0.000428571	0.00007)																																			
	(0.0007	0.000428571	0.00007)																																			
	(0.0014	0.000428571	0.00007)																																			
	(-0.0014	0.000485714	0.00007)																																			
	(-0.0007	0.000485714	0.00007)																																			
	(0	0.000485714	0.00007)																																			
	(0.0007	0.000485714	0.00007)																																			
	(0.0014	0.000485714	0.00007)																																			
	(-0.0014	0.000542857	0.00007)																																			
	(-0.0007	0.000542857	0.00007)																																			
	(0	0.000542857	0.00007)																																			
	(0.0007	0.000542857	0.00007)																																			
	(0.0014	0.000542857	0.00007)																																			
	(-0.0014	0.0006	0.00007)																																			
	(-0.0007	0.0006	0.00007)																																			
	(0	0.0006	0.00007)																																			
	(0.0007	0.0006	0.00007)																																			
	(0.0014	0.0006	0.00007)																																			
	(-0.0014	0.000657143	0.00007)																																			
	(-0.0007	0.000657143	0.00007)																																			
	(0	0.000657143	0.00007)																																			
	(0.0007	0.000657143	0.00007)																																			
	(0.0014	0.000657143	0.00007)																																			
	(-0.0014	0.000714286	0.00007)																																			
	(-0.0007	0.000714286	0.00007)																																			
	(0	0.000714286	0.00007)																																			
	(0.0007	0.000714286	0.00007)																																			
	(0.0014	0.000714286	0.00007)																																			
	(-0.0014	0.000771429	0.00007)																																			
	(-0.0007	0.000771429	0.00007)																																			
	(0	0.000771429	0.00007)																																			
	(0.0007	0.000771429	0.00007)																																			
	(0.0014	0.000771429	0.00007)																																			