/*--------------------------------*- C++ -*----------------------------------*\																
  =========                 |																
  \\      /  F ield         | OpenFOAM: The Open Source CFD Toolbox																
   \\    /   O peration     | Website:  https://openfoam.org																
    \\  /    A nd           | Version:  7																
     \\/     M anipulation  |																
\*---------------------------------------------------------------------------*/																
FoamFile																
{																
    version     2.0;																
    format      ascii;																
    class       vectorField;																
    object      kinematicCloudPositions;																
}																
// * * * * * * * * * * * * * * * * * * * * * * * * * * * * * * * * * * * * * //																
																
(																
(0.000056	0.000000	0.0009)														
(0.000054	0.000014	0.0009)														
(0.000048	0.000028	0.0009)														
(0.00004	0.000040	0.0009)														
(0.000028	0.000048	0.0009)														
(0.000014	0.000054	0.0009)														
(0	0.000056	0.0009)														
(-0.000014	0.000054	0.0009)														
(-0.000028	0.000048	0.0009)														
(-0.00004	0.000040	0.0009)														
(-0.000048	0.000028	0.0009)														
(-0.000054	0.000014	0.0009)														
(-0.000056	0.000000	0.0009)														
(-0.000054	-0.000014	0.0009)														
(-0.000048	-0.000028	0.0009)														
(-0.00004	-0.000040	0.0009)														
(-0.000028	-0.000048	0.0009)														
(-0.000014	-0.000054	0.0009)														
(0	-0.000056	0.0009)														
(0.000014	-0.000054	0.0009)														
(0.000028	-0.000048	0.0009)														
(0.00004	-0.000040	0.0009)														
(0.000048	-0.000028	0.0009)														
(0.000054	-0.000014	0.0009)														
(0.000112	0.000000	0.0009)														
(0.000108	0.000029	0.0009)														
(0.000097	0.000056	0.0009)														
(0.000079	0.000079	0.0009)														
(0.000056	0.000097	0.0009)														
(0.000029	0.000108	0.0009)														
(0	0.000112	0.0009)														
(-0.000029	0.000108	0.0009)														
(-0.000056	0.000097	0.0009)														
(-0.000079	0.000079	0.0009)														
(-0.000097	0.000056	0.0009)														
(-0.000108	0.000029	0.0009)														
(-0.000112	0.000000	0.0009)														
(-0.000108	-0.000029	0.0009)														
(-0.000097	-0.000056	0.0009)														
(-0.000079	-0.000079	0.0009)														
(-0.000056	-0.000097	0.0009)														
(-0.000029	-0.000108	0.0009)														
(0	-0.000112	0.0009)														
(0.000029	-0.000108	0.0009)														
(0.000056	-0.000097	0.0009)														
(0.000079	-0.000079	0.0009)														
(0.000097	-0.000056	0.0009)														
(0.000108	-0.000029	0.0009)														
(0.000168	0.000000	0.0009)														
(0.000162	0.000043	0.0009)														
(0.000145	0.000084	0.0009)														
(0.000119	0.000119	0.0009)														
(0.000084	0.000145	0.0009)														
(0.000043	0.000162	0.0009)														
(0	0.000168	0.0009)														
(-0.000043	0.000162	0.0009)														
(-0.000084	0.000145	0.0009)														
(-0.000119	0.000119	0.0009)														
(-0.000145	0.000084	0.0009)														
(-0.000162	0.000043	0.0009)														
(-0.000168	0.000000	0.0009)														
(-0.000162	-0.000043	0.0009)														
(-0.000145	-0.000084	0.0009)														
(-0.000119	-0.000119	0.0009)														
(-0.000084	-0.000145	0.0009)														
(-0.000043	-0.000162	0.0009)														
(0	-0.000168	0.0009)														
(0.000043	-0.000162	0.0009)														
(0.000084	-0.000145	0.0009)														
(0.000119	-0.000119	0.0009)														
(0.000145	-0.000084	0.0009)														
(0.000162	-0.000043	0.0009)														
(0.000224	0.000000	0.0009)														
(0.000216	0.000058	0.0009)														
(0.000194	0.000112	0.0009)														
(0.000158	0.000158	0.0009)														
(0.000112	0.000194	0.0009)														
(0.000058	0.000216	0.0009)														
(0	0.000224	0.0009)														
(-0.000058	0.000216	0.0009)														
(-0.000112	0.000194	0.0009)														
(-0.000158	0.000158	0.0009)														
(-0.000194	0.000112	0.0009)														
(-0.000216	0.000058	0.0009)														
(-0.000224	0.000000	0.0009)														
(-0.000216	-0.000058	0.0009)														
(-0.000194	-0.000112	0.0009)														
(-0.000158	-0.000158	0.0009)														
(-0.000112	-0.000194	0.0009)														
(-0.000058	-0.000216	0.0009)														
(0	-0.000224	0.0009)														
(0.000058	-0.000216	0.0009)														
(0.000112	-0.000194	0.0009)														
(0.000158	-0.000158	0.0009)														
(0.000194	-0.000112	0.0009)														
(0.000216	-0.000058	0.0009)														
(0.00028	0.000000	0.0009)														
(0.00027	0.000072	0.0009)														
(0.000242	0.000140	0.0009)														
(0.000198	0.000198	0.0009)														
(0.00014	0.000242	0.0009)														
(0.000072	0.000270	0.0009)														
(0	0.000280	0.0009)														
(-0.000072	0.000270	0.0009)														
(-0.00014	0.000242	0.0009)														
(-0.000198	0.000198	0.0009)														
(-0.000242	0.000140	0.0009)														
(-0.00027	0.000072	0.0009)														
(-0.00028	0.000000	0.0009)														
(-0.00027	-0.000072	0.0009)														
(-0.000242	-0.000140	0.0009)														
(-0.000198	-0.000198	0.0009)														
(-0.00014	-0.000242	0.0009)														
(-0.000072	-0.000270	0.0009)														
(0	-0.000280	0.0009)														
(0.000072	-0.000270	0.0009)														
(0.00014	-0.000242	0.0009)														
(0.000198	-0.000198	0.0009)														
(0.000242	-0.000140	0.0009)														
(0.00027	-0.000072	0.0009)														
(0.000336	0.000000	0.0009)														
(0.000325	0.000087	0.0009)														
(0.000291	0.000168	0.0009)														
(0.000238	0.000238	0.0009)														
(0.000168	0.000291	0.0009)														
(0.000087	0.000325	0.0009)														
(0	0.000336	0.0009)														
(-0.000087	0.000325	0.0009)														
(-0.000168	0.000291	0.0009)														
(-0.000238	0.000238	0.0009)														
(-0.000291	0.000168	0.0009)														
(-0.000325	0.000087	0.0009)														
(-0.000336	0.000000	0.0009)														
(-0.000325	-0.000087	0.0009)														
(-0.000291	-0.000168	0.0009)														
(-0.000238	-0.000238	0.0009)														
(-0.000168	-0.000291	0.0009)														
(-0.000087	-0.000325	0.0009)														
(0	-0.000336	0.0009)														
(0.000087	-0.000325	0.0009)														
(0.000168	-0.000291	0.0009)														
(0.000238	-0.000238	0.0009)														
(0.000291	-0.000168	0.0009)														
(0.000325	-0.000087	0.0009)														
(0.000392	0.000000	0.0009)														
(0.000379	0.000101	0.0009)														
(0.000339	0.000196	0.0009)														
(0.000277	0.000277	0.0009)														
(0.000196	0.000339	0.0009)														
(0.000101	0.000379	0.0009)														
(0	0.000392	0.0009)														
(-0.000101	0.000379	0.0009)														
(-0.000196	0.000339	0.0009)														
(-0.000277	0.000277	0.0009)														
(-0.000339	0.000196	0.0009)														
(-0.000379	0.000101	0.0009)														
(-0.000392	0.000000	0.0009)														
(-0.000379	-0.000101	0.0009)														
(-0.000339	-0.000196	0.0009)														
(-0.000277	-0.000277	0.0009)														
(-0.000196	-0.000339	0.0009)														
(-0.000101	-0.000379	0.0009)														
(0	-0.000392	0.0009)														
(0.000101	-0.000379	0.0009)														
(0.000196	-0.000339	0.0009)														
(0.000277	-0.000277	0.0009)														
(0.000339	-0.000196	0.0009)														
(0.000379	-0.000101	0.0009)														
(0.000448	0.000000	0.0009)														
(0.000433	0.000116	0.0009)														
(0.000388	0.000224	0.0009)														
(0.000317	0.000317	0.0009)														
(0.000224	0.000388	0.0009)														
(0.000116	0.000433	0.0009)														
(0	0.000448	0.0009)														
(-0.000116	0.000433	0.0009)														
(-0.000224	0.000388	0.0009)														
(-0.000317	0.000317	0.0009)														
(-0.000388	0.000224	0.0009)														
(-0.000433	0.000116	0.0009)														
(-0.000448	0.000000	0.0009)														
(-0.000433	-0.000116	0.0009)														
(-0.000388	-0.000224	0.0009)														
(-0.000317	-0.000317	0.0009)														
(-0.000224	-0.000388	0.0009)														
(-0.000116	-0.000433	0.0009)														
(0	-0.000448	0.0009)														
(0.000116	-0.000433	0.0009)														
(0.000224	-0.000388	0.0009)														
(0.000317	-0.000317	0.0009)														
(0.000388	-0.000224	0.0009)														
(0.000433	-0.000116	0.0009)														
(0.000504	0.000000	0.0009)														
(0.000487	0.000130	0.0009)														
(0.000436	0.000252	0.0009)														
(0.000356	0.000356	0.0009)														
(0.000252	0.000436	0.0009)														
(0.00013	0.000487	0.0009)														
(0	0.000504	0.0009)														
(-0.00013	0.000487	0.0009)														
(-0.000252	0.000436	0.0009)														
(-0.000356	0.000356	0.0009)														
(-0.000436	0.000252	0.0009)														
(-0.000487	0.000130	0.0009)														
(-0.000504	0.000000	0.0009)														
(-0.000487	-0.000130	0.0009)														
(-0.000436	-0.000252	0.0009)														
(-0.000356	-0.000356	0.0009)														
(-0.000252	-0.000436	0.0009)														
(-0.00013	-0.000487	0.0009)														
(0	-0.000504	0.0009)														
(0.00013	-0.000487	0.0009)														
(0.000252	-0.000436	0.0009)														
(0.000356	-0.000356	0.0009)														
(0.000436	-0.000252	0.0009)														
(0.000487	-0.000130	0.0009)														
(0.00056	0.000000	0.0009)														
(0.000541	0.000145	0.0009)														
(0.000485	0.000280	0.0009)														
(0.000396	0.000396	0.0009)														
(0.00028	0.000485	0.0009)														
(0.000145	0.000541	0.0009)														
(0	0.000560	0.0009)														
(-0.000145	0.000541	0.0009)														
(-0.00028	0.000485	0.0009)														
(-0.000396	0.000396	0.0009)														
(-0.000485	0.000280	0.0009)														
(-0.000541	0.000145	0.0009)														
(-0.00056	0.000000	0.0009)														
(-0.000541	-0.000145	0.0009)														
(-0.000485	-0.000280	0.0009)														
(-0.000396	-0.000396	0.0009)														
(-0.00028	-0.000485	0.0009)														
(-0.000145	-0.000541	0.0009)														
(0	-0.000560	0.0009)														
(0.000145	-0.000541	0.0009)														
(0.00028	-0.000485	0.0009)														
(0.000396	-0.000396	0.0009)														
(0.000485	-0.000280	0.0009)														
(0.000541	-0.000145	0.0009)														
(0.000616	0.000000	0.0009)														
(0.000595	0.000159	0.0009)														
(0.000533	0.000308	0.0009)														
(0.000436	0.000436	0.0009)														
(0.000308	0.000533	0.0009)														
(0.000159	0.000595	0.0009)														
(0	0.000616	0.0009)														
(-0.000159	0.000595	0.0009)														
(-0.000308	0.000533	0.0009)														
(-0.000436	0.000436	0.0009)														
(-0.000533	0.000308	0.0009)														
(-0.000595	0.000159	0.0009)														
(-0.000616	0.000000	0.0009)														
(-0.000595	-0.000159	0.0009)														
(-0.000533	-0.000308	0.0009)														
(-0.000436	-0.000436	0.0009)														
(-0.000308	-0.000533	0.0009)														
(-0.000159	-0.000595	0.0009)														
(0	-0.000616	0.0009)														
(0.000159	-0.000595	0.0009)														
(0.000308	-0.000533	0.0009)														
(0.000436	-0.000436	0.0009)														
(0.000533	-0.000308	0.0009)														
(0.000595	-0.000159	0.0009)														
(0.000672	0.000000	0.0009)														
(0.000649	0.000174	0.0009)														
(0.000582	0.000336	0.0009)														
(0.000475	0.000475	0.0009)														
(0.000336	0.000582	0.0009)														
(0.000174	0.000649	0.0009)														
(0	0.000672	0.0009)														
(-0.000174	0.000649	0.0009)														
(-0.000336	0.000582	0.0009)														
(-0.000475	0.000475	0.0009)														
(-0.000582	0.000336	0.0009)														
(-0.000649	0.000174	0.0009)														
(-0.000672	0.000000	0.0009)														
(-0.000649	-0.000174	0.0009)														
(-0.000582	-0.000336	0.0009)														
(-0.000475	-0.000475	0.0009)														
(-0.000336	-0.000582	0.0009)														
(-0.000174	-0.000649	0.0009)														
(0	-0.000672	0.0009)														
(0.000174	-0.000649	0.0009)														
(0.000336	-0.000582	0.0009)														
(0.000475	-0.000475	0.0009)														
(0.000582	-0.000336	0.0009)														
(0.000649	-0.000174	0.0009)														
(0.000728	0.000000	0.0009)														
(0.000703	0.000188	0.0009)														
(0.00063	0.000364	0.0009)														
(0.000515	0.000515	0.0009)														
(0.000364	0.000630	0.0009)														
(0.000188	0.000703	0.0009)														
(0	0.000728	0.0009)														
(-0.000188	0.000703	0.0009)														
(-0.000364	0.000630	0.0009)														
(-0.000515	0.000515	0.0009)														
(-0.00063	0.000364	0.0009)														
(-0.000703	0.000188	0.0009)														
(-0.000728	0.000000	0.0009)														
(-0.000703	-0.000188	0.0009)														
(-0.00063	-0.000364	0.0009)														
(-0.000515	-0.000515	0.0009)														
(-0.000364	-0.000630	0.0009)														
(-0.000188	-0.000703	0.0009)														
(0	-0.000728	0.0009)														
(0.000188	-0.000703	0.0009)														
(0.000364	-0.000630	0.0009)														
(0.000515	-0.000515	0.0009)														
(0.00063	-0.000364	0.0009)														
(0.000703	-0.000188	0.0009)														
(0.000784	0.000000	0.0009)														
(0.000757	0.000203	0.0009)														
(0.000679	0.000392	0.0009)														
(0.000554	0.000554	0.0009)														
(0.000392	0.000679	0.0009)														
(0.000203	0.000757	0.0009)														
(0	0.000784	0.0009)														
(-0.000203	0.000757	0.0009)														
(-0.000392	0.000679	0.0009)														
(-0.000554	0.000554	0.0009)														
(-0.000679	0.000392	0.0009)														
(-0.000757	0.000203	0.0009)														
(-0.000784	0.000000	0.0009)														
(-0.000757	-0.000203	0.0009)														
(-0.000679	-0.000392	0.0009)														
(-0.000554	-0.000554	0.0009)														
(-0.000392	-0.000679	0.0009)														
(-0.000203	-0.000757	0.0009)														
(0	-0.000784	0.0009)														
(0.000203	-0.000757	0.0009)														
(0.000392	-0.000679	0.0009)														
(0.000554	-0.000554	0.0009)														
(0.000679	-0.000392	0.0009)														
(0.000757	-0.000203	0.0009)														
(0.00084	0.000000	0.0009)														
(0.000811	0.000217	0.0009)														
(0.000727	0.000420	0.0009)														
(0.000594	0.000594	0.0009)														
(0.00042	0.000727	0.0009)														
(0.000217	0.000811	0.0009)														
(0	0.000840	0.0009)														
(-0.000217	0.000811	0.0009)														
(-0.00042	0.000727	0.0009)														
(-0.000594	0.000594	0.0009)														
(-0.000727	0.000420	0.0009)														
(-0.000811	0.000217	0.0009)														
(-0.00084	0.000000	0.0009)														
(-0.000811	-0.000217	0.0009)														
(-0.000727	-0.000420	0.0009)														
(-0.000594	-0.000594	0.0009)														
(-0.00042	-0.000727	0.0009)														
(-0.000217	-0.000811	0.0009)														
(0	-0.000840	0.0009)														
(0.000217	-0.000811	0.0009)														
(0.00042	-0.000727	0.0009)														
(0.000594	-0.000594	0.0009)														
(0.000727	-0.000420	0.0009)														
(0.000811	-0.000217	0.0009)														
(0.000896	0.000000	0.0009)														
(0.000865	0.000232	0.0009)														
(0.000776	0.000448	0.0009)														
(0.000634	0.000634	0.0009)														
(0.000448	0.000776	0.0009)														
(0.000232	0.000865	0.0009)														
(0	0.000896	0.0009)														
(-0.000232	0.000865	0.0009)														
(-0.000448	0.000776	0.0009)														
(-0.000634	0.000634	0.0009)														
(-0.000776	0.000448	0.0009)														
(-0.000865	0.000232	0.0009)														
(-0.000896	0.000000	0.0009)														
(-0.000865	-0.000232	0.0009)														
(-0.000776	-0.000448	0.0009)														
(-0.000634	-0.000634	0.0009)														
(-0.000448	-0.000776	0.0009)														
(-0.000232	-0.000865	0.0009)														
(0	-0.000896	0.0009)														
(0.000232	-0.000865	0.0009)														
(0.000448	-0.000776	0.0009)														
(0.000634	-0.000634	0.0009)														
(0.000776	-0.000448	0.0009)														
(0.000865	-0.000232	0.0009)														
(0.000952	0.000000	0.0009)														
(0.00092	0.000246	0.0009)														
(0.000824	0.000476	0.0009)														
(0.000673	0.000673	0.0009)														
(0.000476	0.000824	0.0009)														
(0.000246	0.000920	0.0009)														
(0	0.000952	0.0009)														
(-0.000246	0.000920	0.0009)														
(-0.000476	0.000824	0.0009)														
(-0.000673	0.000673	0.0009)														
(-0.000824	0.000476	0.0009)														
(-0.00092	0.000246	0.0009)														
(-0.000952	0.000000	0.0009)														
(-0.00092	-0.000246	0.0009)														
(-0.000824	-0.000476	0.0009)														
(-0.000673	-0.000673	0.0009)														
(-0.000476	-0.000824	0.0009)														
(-0.000246	-0.000920	0.0009)														
(0	-0.000952	0.0009)														
(0.000246	-0.000920	0.0009)														
(0.000476	-0.000824	0.0009)														
(0.000673	-0.000673	0.0009)														
(0.000824	-0.000476	0.0009)														
(0.00092	-0.000246	0.0009)														
(0.001008	0.000000	0.0009)														
(0.000974	0.000261	0.0009)														
(0.000873	0.000504	0.0009)														
(0.000713	0.000713	0.0009)														
(0.000504	0.000873	0.0009)														
(0.000261	0.000974	0.0009)														
(0	0.001008	0.0009)														
(-0.000261	0.000974	0.0009)														
(-0.000504	0.000873	0.0009)														
(-0.000713	0.000713	0.0009)														
(-0.000873	0.000504	0.0009)														
(-0.000974	0.000261	0.0009)														
(-0.001008	0.000000	0.0009)														
(-0.000974	-0.000261	0.0009)														
(-0.000873	-0.000504	0.0009)														
(-0.000713	-0.000713	0.0009)														
(-0.000504	-0.000873	0.0009)														
(-0.000261	-0.000974	0.0009)														
(0	-0.001008	0.0009)														
(0.000261	-0.000974	0.0009)														
(0.000504	-0.000873	0.0009)														
(0.000713	-0.000713	0.0009)														
(0.000873	-0.000504	0.0009)														
(0.000974	-0.000261	0.0009)														
(0.001064	0.000000	0.0009)														
(0.001028	0.000275	0.0009)														
(0.000921	0.000532	0.0009)														
(0.000752	0.000752	0.0009)														
(0.000532	0.000921	0.0009)														
(0.000275	0.001028	0.0009)														
(0	0.001064	0.0009)														
(-0.000275	0.001028	0.0009)														
(-0.000532	0.000921	0.0009)														
(-0.000752	0.000752	0.0009)														
(-0.000921	0.000532	0.0009)														
(-0.001028	0.000275	0.0009)														
(-0.001064	0.000000	0.0009)														
(-0.001028	-0.000275	0.0009)														
(-0.000921	-0.000532	0.0009)														
(-0.000752	-0.000752	0.0009)														
(-0.000532	-0.000921	0.0009)														
(-0.000275	-0.001028	0.0009)														
(0	-0.001064	0.0009)														
(0.000275	-0.001028	0.0009)														
(0.000532	-0.000921	0.0009)														
(0.000752	-0.000752	0.0009)														
(0.000921	-0.000532	0.0009)														
(0.001028	-0.000275	0.0009)														
(0.00112	0.000000	0.0009)														
(0.001082	0.000290	0.0009)														
(0.00097	0.000560	0.0009)														
(0.000792	0.000792	0.0009)														
(0.00056	0.000970	0.0009)														
(0.00029	0.001082	0.0009)														
(0	0.001120	0.0009)														
(-0.00029	0.001082	0.0009)														
(-0.00056	0.000970	0.0009)														
(-0.000792	0.000792	0.0009)														
(-0.00097	0.000560	0.0009)														
(-0.001082	0.000290	0.0009)														
(-0.00112	0.000000	0.0009)														
(-0.001082	-0.000290	0.0009)														
(-0.00097	-0.000560	0.0009)														
(-0.000792	-0.000792	0.0009)														
(-0.00056	-0.000970	0.0009)														
(-0.00029	-0.001082	0.0009)														
(0	-0.001120	0.0009)														
(0.00029	-0.001082	0.0009)														
(0.00056	-0.000970	0.0009)														
(0.000792	-0.000792	0.0009)														
(0.00097	-0.000560	0.0009)														
(0.001082	-0.000290	0.0009)														
(0.001176	0.000000	0.0009)														
(0.001136	0.000304	0.0009)														
(0.001018	0.000588	0.0009)														
(0.000832	0.000832	0.0009)														
(0.000588	0.001018	0.0009)														
(0.000304	0.001136	0.0009)														
(0	0.001176	0.0009)														
(-0.000304	0.001136	0.0009)														
(-0.000588	0.001018	0.0009)														
(-0.000832	0.000832	0.0009)														
(-0.001018	0.000588	0.0009)														
(-0.001136	0.000304	0.0009)														
(-0.001176	0.000000	0.0009)														
(-0.001136	-0.000304	0.0009)														
(-0.001018	-0.000588	0.0009)														
(-0.000832	-0.000832	0.0009)														
(-0.000588	-0.001018	0.0009)														
(-0.000304	-0.001136	0.0009)														
(0	-0.001176	0.0009)														
(0.000304	-0.001136	0.0009)														
(0.000588	-0.001018	0.0009)														
(0.000832	-0.000832	0.0009)														
(0.001018	-0.000588	0.0009)														
(0.001136	-0.000304	0.0009)														
(0.001232	0.000000	0.0009)														
(0.00119	0.000319	0.0009)														
(0.001067	0.000616	0.0009)														
(0.000871	0.000871	0.0009)														
(0.000616	0.001067	0.0009)														
(0.000319	0.001190	0.0009)														
(0	0.001232	0.0009)														
(-0.000319	0.001190	0.0009)														
(-0.000616	0.001067	0.0009)														
(-0.000871	0.000871	0.0009)														
(-0.001067	0.000616	0.0009)														
(-0.00119	0.000319	0.0009)														
(-0.001232	0.000000	0.0009)														
(-0.00119	-0.000319	0.0009)														
(-0.001067	-0.000616	0.0009)														
(-0.000871	-0.000871	0.0009)														
(-0.000616	-0.001067	0.0009)														
(-0.000319	-0.001190	0.0009)														
(0	-0.001232	0.0009)														
(0.000319	-0.001190	0.0009)														
(0.000616	-0.001067	0.0009)														
(0.000871	-0.000871	0.0009)														
(0.001067	-0.000616	0.0009)														
(0.00119	-0.000319	0.0009)														
(0.001288	0.000000	0.0009)														
(0.001244	0.000333	0.0009)														
(0.001115	0.000644	0.0009)														
(0.000911	0.000911	0.0009)														
(0.000644	0.001115	0.0009)														
(0.000333	0.001244	0.0009)														
(0	0.001288	0.0009)														
(-0.000333	0.001244	0.0009)														
(-0.000644	0.001115	0.0009)														
(-0.000911	0.000911	0.0009)														
(-0.001115	0.000644	0.0009)														
(-0.001244	0.000333	0.0009)														
(-0.001288	0.000000	0.0009)														
(-0.001244	-0.000333	0.0009)														
(-0.001115	-0.000644	0.0009)														
(-0.000911	-0.000911	0.0009)														
(-0.000644	-0.001115	0.0009)														
(-0.000333	-0.001244	0.0009)														
(0	-0.001288	0.0009)														
(0.000333	-0.001244	0.0009)														
(0.000644	-0.001115	0.0009)														
(0.000911	-0.000911	0.0009)														
(0.001115	-0.000644	0.0009)														
(0.001244	-0.000333	0.0009)														
(0.001344	0.000000	0.0009)														
(0.001298	0.000348	0.0009)														
(0.001164	0.000672	0.0009)														
(0.00095	0.000950	0.0009)														
(0.000672	0.001164	0.0009)														
(0.000348	0.001298	0.0009)														
(0	0.001344	0.0009)														
(-0.000348	0.001298	0.0009)														
(-0.000672	0.001164	0.0009)														
(-0.00095	0.000950	0.0009)														
(-0.001164	0.000672	0.0009)														
(-0.001298	0.000348	0.0009)														
(-0.001344	0.000000	0.0009)														
(-0.001298	-0.000348	0.0009)														
(-0.001164	-0.000672	0.0009)														
(-0.00095	-0.000950	0.0009)														
(-0.000672	-0.001164	0.0009)														
(-0.000348	-0.001298	0.0009)														
(0	-0.001344	0.0009)														
(0.000348	-0.001298	0.0009)														
(0.000672	-0.001164	0.0009)														
(0.00095	-0.000950	0.0009)														
(0.001164	-0.000672	0.0009)														
(0.001298	-0.000348	0.0009)														
(0.0014	0.000000	0.0009)														
(0.001352	0.000362	0.0009)														
(0.001212	0.000700	0.0009)														
(0.00099	0.000990	0.0009)														
(0.0007	0.001212	0.0009)														
(0.000362	0.001352	0.0009)														
(0	0.001400	0.0009)														
(-0.000362	0.001352	0.0009)														
(-0.0007	0.001212	0.0009)														
(-0.00099	0.000990	0.0009)														
(-0.001212	0.000700	0.0009)														
(-0.001352	0.000362	0.0009)														
(-0.0014	0.000000	0.0009)														
(-0.001352	-0.000362	0.0009)														
(-0.001212	-0.000700	0.0009)														
(-0.00099	-0.000990	0.0009)														
(-0.0007	-0.001212	0.0009)														
(-0.000362	-0.001352	0.0009)														
(0	-0.001400	0.0009)														
(0.000362	-0.001352	0.0009)														
(0.0007	-0.001212	0.0009)														
(0.00099	-0.000990	0.0009)														
(0.001212	-0.000700	0.0009)														
(0.001352	-0.000362	0.0009)														
(0.000056	0.000000	0.0018)														
(0.000054	0.000014	0.0018)														
(0.000048	0.000028	0.0018)														
(0.00004	0.000040	0.0018)														
(0.000028	0.000048	0.0018)														
(0.000014	0.000054	0.0018)														
(0	0.000056	0.0018)														
(-0.000014	0.000054	0.0018)														
(-0.000028	0.000048	0.0018)														
(-0.00004	0.000040	0.0018)														
(-0.000048	0.000028	0.0018)														
(-0.000054	0.000014	0.0018)														
(-0.000056	0.000000	0.0018)														
(-0.000054	-0.000014	0.0018)														
(-0.000048	-0.000028	0.0018)														
(-0.00004	-0.000040	0.0018)														
(-0.000028	-0.000048	0.0018)														
(-0.000014	-0.000054	0.0018)														
(0	-0.000056	0.0018)														
(0.000014	-0.000054	0.0018)														
(0.000028	-0.000048	0.0018)														
(0.00004	-0.000040	0.0018)														
(0.000048	-0.000028	0.0018)														
(0.000054	-0.000014	0.0018)														
(0.000112	0.000000	0.0018)														
(0.000108	0.000029	0.0018)														
(0.000097	0.000056	0.0018)														
(0.000079	0.000079	0.0018)														
(0.000056	0.000097	0.0018)														
(0.000029	0.000108	0.0018)														
(0	0.000112	0.0018)														
(-0.000029	0.000108	0.0018)														
(-0.000056	0.000097	0.0018)														
(-0.000079	0.000079	0.0018)														
(-0.000097	0.000056	0.0018)														
(-0.000108	0.000029	0.0018)														
(-0.000112	0.000000	0.0018)														
(-0.000108	-0.000029	0.0018)														
(-0.000097	-0.000056	0.0018)														
(-0.000079	-0.000079	0.0018)														
(-0.000056	-0.000097	0.0018)														
(-0.000029	-0.000108	0.0018)														
(0	-0.000112	0.0018)														
(0.000029	-0.000108	0.0018)														
(0.000056	-0.000097	0.0018)														
(0.000079	-0.000079	0.0018)														
(0.000097	-0.000056	0.0018)														
(0.000108	-0.000029	0.0018)														
(0.000168	0.000000	0.0018)														
(0.000162	0.000043	0.0018)														
(0.000145	0.000084	0.0018)														
(0.000119	0.000119	0.0018)														
(0.000084	0.000145	0.0018)														
(0.000043	0.000162	0.0018)														
(0	0.000168	0.0018)														
(-0.000043	0.000162	0.0018)														
(-0.000084	0.000145	0.0018)														
(-0.000119	0.000119	0.0018)														
(-0.000145	0.000084	0.0018)														
(-0.000162	0.000043	0.0018)														
(-0.000168	0.000000	0.0018)														
(-0.000162	-0.000043	0.0018)														
(-0.000145	-0.000084	0.0018)														
(-0.000119	-0.000119	0.0018)														
(-0.000084	-0.000145	0.0018)														
(-0.000043	-0.000162	0.0018)														
(0	-0.000168	0.0018)														
(0.000043	-0.000162	0.0018)														
(0.000084	-0.000145	0.0018)														
(0.000119	-0.000119	0.0018)														
(0.000145	-0.000084	0.0018)														
(0.000162	-0.000043	0.0018)														
(0.000224	0.000000	0.0018)														
(0.000216	0.000058	0.0018)														
(0.000194	0.000112	0.0018)														
(0.000158	0.000158	0.0018)														
(0.000112	0.000194	0.0018)														
(0.000058	0.000216	0.0018)														
(0	0.000224	0.0018)														
(-0.000058	0.000216	0.0018)														
(-0.000112	0.000194	0.0018)														
(-0.000158	0.000158	0.0018)														
(-0.000194	0.000112	0.0018)														
(-0.000216	0.000058	0.0018)														
(-0.000224	0.000000	0.0018)														
(-0.000216	-0.000058	0.0018)														
(-0.000194	-0.000112	0.0018)														
(-0.000158	-0.000158	0.0018)														
(-0.000112	-0.000194	0.0018)														