/*--------------------------------*- C++ -*----------------------------------*\																
  =========                 |																
  \\      /  F ield         | OpenFOAM: The Open Source CFD Toolbox																
   \\    /   O peration     | Website:  https://openfoam.org																
    \\  /    A nd           | Version:  7																
     \\/     M anipulation  |																
/*---------------------------------------------------------------------------*/																
FoamFile																
{																
    version     2.0;																
    format      ascii;																
    class       vectorField;																
    object      kinematicCloudPositions;																
}																
// * * * * * * * * * * * * * * * * * * * * * * * * * * * * * * * * * * * * * //																
																
(																
(-0.00096	0.000960	0.0001)														
(-0.00076	0.000960	0.0001)														
(-0.00056	0.000960	0.0001)														
(-0.00036	0.000960	0.0001)														
(-0.00016	0.000960	0.0001)														
(0.00004	0.000960	0.0001)														
(0.00024	0.000960	0.0001)														
(0.00044	0.000960	0.0001)														
(0.00064	0.000960	0.0001)														
(0.00084	0.000960	0.0001)														
(-0.00096	0.000860	0.0001)														
(-0.00076	0.000860	0.0001)														
(-0.00056	0.000860	0.0001)														
(-0.00036	0.000860	0.0001)														
(-0.00016	0.000860	0.0001)														
(0.00004	0.000860	0.0001)														
(0.00024	0.000860	0.0001)														
(0.00044	0.000860	0.0001)														
(0.00064	0.000860	0.0001)														
(0.00084	0.000860	0.0001)														
(-0.00096	0.000760	0.0001)														
(-0.00076	0.000760	0.0001)														
(-0.00056	0.000760	0.0001)														
(-0.00036	0.000760	0.0001)														
(-0.00016	0.000760	0.0001)														
(0.00004	0.000760	0.0001)														
(0.00024	0.000760	0.0001)														
(0.00044	0.000760	0.0001)														
(0.00064	0.000760	0.0001)														
(0.00084	0.000760	0.0001)														
(-0.00096	0.000660	0.0001)														
(-0.00076	0.000660	0.0001)														
(-0.00056	0.000660	0.0001)														
(-0.00036	0.000660	0.0001)														
(-0.00016	0.000660	0.0001)														
(0.00004	0.000660	0.0001)														
(0.00024	0.000660	0.0001)														
(0.00044	0.000660	0.0001)														
(0.00064	0.000660	0.0001)														
(0.00084	0.000660	0.0001)														
(-0.00096	0.000560	0.0001)														
(-0.00076	0.000560	0.0001)														
(-0.00056	0.000560	0.0001)														
(-0.00036	0.000560	0.0001)														
(-0.00016	0.000560	0.0001)														
(0.00004	0.000560	0.0001)														
(0.00024	0.000560	0.0001)														
(0.00044	0.000560	0.0001)														
(0.00064	0.000560	0.0001)														
(0.00084	0.000560	0.0001)														
(-0.00096	0.000460	0.0001)														
(-0.00076	0.000460	0.0001)														
(-0.00056	0.000460	0.0001)														
(-0.00036	0.000460	0.0001)														
(-0.00016	0.000460	0.0001)														
(0.00004	0.000460	0.0001)														
(0.00024	0.000460	0.0001)														
(0.00044	0.000460	0.0001)														
(0.00064	0.000460	0.0001)														
(0.00084	0.000460	0.0001)														
(-0.00096	0.000360	0.0001)														
(-0.00076	0.000360	0.0001)														
(-0.00056	0.000360	0.0001)														
(-0.00036	0.000360	0.0001)														
(-0.00016	0.000360	0.0001)														
(0.00004	0.000360	0.0001)														
(0.00024	0.000360	0.0001)														
(0.00044	0.000360	0.0001)														
(0.00064	0.000360	0.0001)														
(0.00084	0.000360	0.0001)														
(-0.00096	0.000260	0.0001)														
(-0.00076	0.000260	0.0001)														
(-0.00056	0.000260	0.0001)														
(-0.00036	0.000260	0.0001)														
(-0.00016	0.000260	0.0001)														
(0.00004	0.000260	0.0001)														
(0.00024	0.000260	0.0001)														
(0.00044	0.000260	0.0001)														
(0.00064	0.000260	0.0001)														
(0.00084	0.000260	0.0001)														
(-0.00096	0.000160	0.0001)														
(-0.00076	0.000160	0.0001)														
(-0.00056	0.000160	0.0001)														
(-0.00036	0.000160	0.0001)														
(-0.00016	0.000160	0.0001)														
(0.00004	0.000160	0.0001)														
(0.00024	0.000160	0.0001)														
(0.00044	0.000160	0.0001)														
(0.00064	0.000160	0.0001)														
(0.00084	0.000160	0.0001)														
(-0.00096	0.000060	0.0001)														
(-0.00076	0.000060	0.0001)														
(-0.00056	0.000060	0.0001)														
(-0.00036	0.000060	0.0001)														
(-0.00016	0.000060	0.0001)														
(0.00004	0.000060	0.0001)														
(0.00024	0.000060	0.0001)														
(0.00044	0.000060	0.0001)														
(0.00064	0.000060	0.0001)														
(0.00084	0.000060	0.0001)														
(-0.00096	0.000960	0.00023)														
(-0.00076	0.000960	0.00023)														
(-0.00056	0.000960	0.00023)														
(-0.00036	0.000960	0.00023)														
(-0.00016	0.000960	0.00023)														
(0.00004	0.000960	0.00023)														
(0.00024	0.000960	0.00023)														
(0.00044	0.000960	0.00023)														
(0.00064	0.000960	0.00023)														
(0.00084	0.000960	0.00023)														
(-0.00096	0.000860	0.00023)														
(-0.00076	0.000860	0.00023)														
(-0.00056	0.000860	0.00023)														
(-0.00036	0.000860	0.00023)														
(-0.00016	0.000860	0.00023)														
(0.00004	0.000860	0.00023)														
(0.00024	0.000860	0.00023)														
(0.00044	0.000860	0.00023)														
(0.00064	0.000860	0.00023)														
(0.00084	0.000860	0.00023)														
(-0.00096	0.000760	0.00023)														
(-0.00076	0.000760	0.00023)														
(-0.00056	0.000760	0.00023)														
(-0.00036	0.000760	0.00023)														
(-0.00016	0.000760	0.00023)														
(0.00004	0.000760	0.00023)														
(0.00024	0.000760	0.00023)														
(0.00044	0.000760	0.00023)														
(0.00064	0.000760	0.00023)														
(0.00084	0.000760	0.00023)														
(-0.00096	0.000660	0.00023)														
(-0.00076	0.000660	0.00023)														
(-0.00056	0.000660	0.00023)														
(-0.00036	0.000660	0.00023)														
(-0.00016	0.000660	0.00023)														
(0.00004	0.000660	0.00023)														
(0.00024	0.000660	0.00023)														
(0.00044	0.000660	0.00023)														
(0.00064	0.000660	0.00023)														
(0.00084	0.000660	0.00023)														
(-0.00096	0.000560	0.00023)														
(-0.00076	0.000560	0.00023)														
(-0.00056	0.000560	0.00023)														
(-0.00036	0.000560	0.00023)														
(-0.00016	0.000560	0.00023)														
(0.00004	0.000560	0.00023)														
(0.00024	0.000560	0.00023)														
(0.00044	0.000560	0.00023)														
(0.00064	0.000560	0.00023)														
(0.00084	0.000560	0.00023)														
(-0.00096	0.000460	0.00023)														
(-0.00076	0.000460	0.00023)														
(-0.00056	0.000460	0.00023)														
(-0.00036	0.000460	0.00023)														
(-0.00016	0.000460	0.00023)														
(0.00004	0.000460	0.00023)														
(0.00024	0.000460	0.00023)														
(0.00044	0.000460	0.00023)														
(0.00064	0.000460	0.00023)														
(0.00084	0.000460	0.00023)														
(-0.00096	0.000360	0.00023)														
(-0.00076	0.000360	0.00023)														
(-0.00056	0.000360	0.00023)														
(-0.00036	0.000360	0.00023)														
(-0.00016	0.000360	0.00023)														
(0.00004	0.000360	0.00023)														
(0.00024	0.000360	0.00023)														
(0.00044	0.000360	0.00023)														
(0.00064	0.000360	0.00023)														
(0.00084	0.000360	0.00023)														
(-0.00096	0.000260	0.00023)														
(-0.00076	0.000260	0.00023)														
(-0.00056	0.000260	0.00023)														
(-0.00036	0.000260	0.00023)														
(-0.00016	0.000260	0.00023)														
(0.00004	0.000260	0.00023)														
(0.00024	0.000260	0.00023)														
(0.00044	0.000260	0.00023)														
(0.00064	0.000260	0.00023)														
(0.00084	0.000260	0.00023)														
(-0.00096	0.000160	0.00023)														
(-0.00076	0.000160	0.00023)														
(-0.00056	0.000160	0.00023)														
(-0.00036	0.000160	0.00023)														
(-0.00016	0.000160	0.00023)														
(0.00004	0.000160	0.00023)														
(0.00024	0.000160	0.00023)														
(0.00044	0.000160	0.00023)														
(0.00064	0.000160	0.00023)														
(0.00084	0.000160	0.00023)														
(-0.00096	0.000060	0.00023)														
(-0.00076	0.000060	0.00023)														
(-0.00056	0.000060	0.00023)														
(-0.00036	0.000060	0.00023)														
(-0.00016	0.000060	0.00023)														
(0.00004	0.000060	0.00023)														
(0.00024	0.000060	0.00023)														
(0.00044	0.000060	0.00023)														
(0.00064	0.000060	0.00023)														
(0.00084	0.000060	0.00023)														
(-0.00096	0.000960	0.00035)														
(-0.00076	0.000960	0.00035)														
(-0.00056	0.000960	0.00035)														
(-0.00036	0.000960	0.00035)														
(-0.00016	0.000960	0.00035)														
(0.00004	0.000960	0.00035)														
(0.00024	0.000960	0.00035)														
(0.00044	0.000960	0.00035)														
(0.00064	0.000960	0.00035)														
(0.00084	0.000960	0.00035)														
(-0.00096	0.000860	0.00035)														
(-0.00076	0.000860	0.00035)														
(-0.00056	0.000860	0.00035)														
(-0.00036	0.000860	0.00035)														
(-0.00016	0.000860	0.00035)														
(0.00004	0.000860	0.00035)														
(0.00024	0.000860	0.00035)														
(0.00044	0.000860	0.00035)														
(0.00064	0.000860	0.00035)														
(0.00084	0.000860	0.00035)														
(-0.00096	0.000760	0.00035)														
(-0.00076	0.000760	0.00035)														
(-0.00056	0.000760	0.00035)														
(-0.00036	0.000760	0.00035)														
(-0.00016	0.000760	0.00035)														
(0.00004	0.000760	0.00035)														
(0.00024	0.000760	0.00035)														
(0.00044	0.000760	0.00035)														
(0.00064	0.000760	0.00035)														
(0.00084	0.000760	0.00035)														
(-0.00096	0.000660	0.00035)														
(-0.00076	0.000660	0.00035)														
(-0.00056	0.000660	0.00035)														
(-0.00036	0.000660	0.00035)														
(-0.00016	0.000660	0.00035)														
(0.00004	0.000660	0.00035)														
(0.00024	0.000660	0.00035)														
(0.00044	0.000660	0.00035)														
(0.00064	0.000660	0.00035)														
(0.00084	0.000660	0.00035)														
(-0.00096	0.000560	0.00035)														
(-0.00076	0.000560	0.00035)														
(-0.00056	0.000560	0.00035)														
(-0.00036	0.000560	0.00035)														
(-0.00016	0.000560	0.00035)														
(0.00004	0.000560	0.00035)														
(0.00024	0.000560	0.00035)														
(0.00044	0.000560	0.00035)														
(0.00064	0.000560	0.00035)														
(0.00084	0.000560	0.00035)														
(-0.00096	0.000460	0.00035)														
(-0.00076	0.000460	0.00035)														
(-0.00056	0.000460	0.00035)														
(-0.00036	0.000460	0.00035)														
(-0.00016	0.000460	0.00035)														
(0.00004	0.000460	0.00035)														
(0.00024	0.000460	0.00035)														
(0.00044	0.000460	0.00035)														
(0.00064	0.000460	0.00035)														
(0.00084	0.000460	0.00035)														
(-0.00096	0.000360	0.00035)														
(-0.00076	0.000360	0.00035)														
(-0.00056	0.000360	0.00035)														
(-0.00036	0.000360	0.00035)														
(-0.00016	0.000360	0.00035)														
(0.00004	0.000360	0.00035)														
(0.00024	0.000360	0.00035)														
(0.00044	0.000360	0.00035)														
(0.00064	0.000360	0.00035)														
(0.00084	0.000360	0.00035)														
(-0.00096	0.000260	0.00035)														
(-0.00076	0.000260	0.00035)														
(-0.00056	0.000260	0.00035)														
(-0.00036	0.000260	0.00035)														
(-0.00016	0.000260	0.00035)														
(0.00004	0.000260	0.00035)														
(0.00024	0.000260	0.00035)														
(0.00044	0.000260	0.00035)														
(0.00064	0.000260	0.00035)														
(0.00084	0.000260	0.00035)														
(-0.00096	0.000160	0.00035)														
(-0.00076	0.000160	0.00035)														
(-0.00056	0.000160	0.00035)														
(-0.00036	0.000160	0.00035)														
(-0.00016	0.000160	0.00035)														
(0.00004	0.000160	0.00035)														
(0.00024	0.000160	0.00035)														
(0.00044	0.000160	0.00035)														
(0.00064	0.000160	0.00035)														
(0.00084	0.000160	0.00035)														
(-0.00096	0.000060	0.00035)														
(-0.00076	0.000060	0.00035)														
(-0.00056	0.000060	0.00035)														
(-0.00036	0.000060	0.00035)														
(-0.00016	0.000060	0.00035)														
(0.00004	0.000060	0.00035)														
(0.00024	0.000060	0.00035)														
(0.00044	0.000060	0.00035)														
(0.00064	0.000060	0.00035)														
(0.00084	0.000060	0.00035)														
(-0.00096	0.00096	0.00048)														
(-0.00076	0.00096	0.00048)														
(-0.00056	0.00096	0.00048)														
(-0.00036	0.00096	0.00048)														
(-0.00016	0.00096	0.00048)														
(0.00004	0.00096	0.00048)														
(0.00024	0.00096	0.00048)														
(0.00044	0.00096	0.00048)														
(0.00064	0.00096	0.00048)														
(0.00084	0.00096	0.00048)														
(-0.00096	0.00086	0.00048)														
(-0.00076	0.00086	0.00048)														
(-0.00056	0.00086	0.00048)														
(-0.00036	0.00086	0.00048)														
(-0.00016	0.00086	0.00048)														
(0.00004	0.00086	0.00048)														
(0.00024	0.00086	0.00048)														
(0.00044	0.00086	0.00048)														
(0.00064	0.00086	0.00048)														
(0.00084	0.00086	0.00048)														
(-0.00096	0.00076	0.00048)														
(-0.00076	0.00076	0.00048)														
(-0.00056	0.00076	0.00048)														
(-0.00036	0.00076	0.00048)														
(-0.00016	0.00076	0.00048)														
(0.00004	0.00076	0.00048)														
(0.00024	0.00076	0.00048)														
(0.00044	0.00076	0.00048)														
(0.00064	0.00076	0.00048)														
(0.00084	0.00076	0.00048)														
(-0.00096	0.00066	0.00048)														
(-0.00076	0.00066	0.00048)														
(-0.00056	0.00066	0.00048)														
(-0.00036	0.00066	0.00048)														
(-0.00016	0.00066	0.00048)														
(0.00004	0.00066	0.00048)														
(0.00024	0.00066	0.00048)														
(0.00044	0.00066	0.00048)														
(0.00064	0.00066	0.00048)														
(0.00084	0.00066	0.00048)														
(-0.00096	0.00056	0.00048)														
(-0.00076	0.00056	0.00048)														
(-0.00056	0.00056	0.00048)														
(-0.00036	0.00056	0.00048)														
(-0.00016	0.00056	0.00048)														
(0.00004	0.00056	0.00048)														
(0.00024	0.00056	0.00048)														
(0.00044	0.00056	0.00048)														
(0.00064	0.00056	0.00048)														
(0.00084	0.00056	0.00048)														
(-0.00096	0.00046	0.00048)														
(-0.00076	0.00046	0.00048)														
(-0.00056	0.00046	0.00048)														
(-0.00036	0.00046	0.00048)														
(-0.00016	0.00046	0.00048)														
(0.00004	0.00046	0.00048)														
(0.00024	0.00046	0.00048)														
(0.00044	0.00046	0.00048)														
(0.00064	0.00046	0.00048)														
(0.00084	0.00046	0.00048)														
(-0.00096	0.00036	0.00048)														
(-0.00076	0.00036	0.00048)														
(-0.00056	0.00036	0.00048)														
(-0.00036	0.00036	0.00048)														
(-0.00016	0.00036	0.00048)														
(0.00004	0.00036	0.00048)														
(0.00024	0.00036	0.00048)														
(0.00044	0.00036	0.00048)														
(0.00064	0.00036	0.00048)														
(0.00084	0.00036	0.00048)														
(-0.00096	0.00026	0.00048)														
(-0.00076	0.00026	0.00048)														
(-0.00056	0.00026	0.00048)														
(-0.00036	0.00026	0.00048)														
(-0.00016	0.00026	0.00048)														
(0.00004	0.00026	0.00048)														
(0.00024	0.00026	0.00048)														
(0.00044	0.00026	0.00048)														
(0.00064	0.00026	0.00048)														
(0.00084	0.00026	0.00048)														
(-0.00096	0.00016	0.00048)														
(-0.00076	0.00016	0.00048)														
(-0.00056	0.00016	0.00048)														
(-0.00036	0.00016	0.00048)														
(-0.00016	0.00016	0.00048)														
(0.00004	0.00016	0.00048)														
(0.00024	0.00016	0.00048)														
(0.00044	0.00016	0.00048)														
(0.00064	0.00016	0.00048)														
(0.00084	0.00016	0.00048)														
(-0.00096	0.00006	0.00048)														
(-0.00076	0.00006	0.00048)														
(-0.00056	0.00006	0.00048)														
(-0.00036	0.00006	0.00048)														
(-0.00016	0.00006	0.00048)														
(0.00004	0.00006	0.00048)														
(0.00024	0.00006	0.00048)														
(0.00044	0.00006	0.00048)														
(0.00064	0.00006	0.00048)														
(0.00084	0.00006	0.00048)														
(-0.00096	0.00096	0.0006)														
(-0.00076	0.00096	0.0006)														
(-0.00056	0.00096	0.0006)														
(-0.00036	0.00096	0.0006)														
(-0.00016	0.00096	0.0006)														
(0.00004	0.00096	0.0006)														
(0.00024	0.00096	0.0006)														
(0.00044	0.00096	0.0006)														
(0.00064	0.00096	0.0006)														
(0.00084	0.00096	0.0006)														
(-0.00096	0.00086	0.0006)														
(-0.00076	0.00086	0.0006)														
(-0.00056	0.00086	0.0006)														
(-0.00036	0.00086	0.0006)														
(-0.00016	0.00086	0.0006)														
(0.00004	0.00086	0.0006)														
(0.00024	0.00086	0.0006)														
(0.00044	0.00086	0.0006)														
(0.00064	0.00086	0.0006)														
(0.00084	0.00086	0.0006)														
(-0.00096	0.00076	0.0006)														
(-0.00076	0.00076	0.0006)														
(-0.00056	0.00076	0.0006)														
(-0.00036	0.00076	0.0006)														
(-0.00016	0.00076	0.0006)														
(0.00004	0.00076	0.0006)														
(0.00024	0.00076	0.0006)														
(0.00044	0.00076	0.0006)														
(0.00064	0.00076	0.0006)														
(0.00084	0.00076	0.0006)														
(-0.00096	0.00066	0.0006)														
(-0.00076	0.00066	0.0006)														
(-0.00056	0.00066	0.0006)														
(-0.00036	0.00066	0.0006)														
(-0.00016	0.00066	0.0006)														
(0.00004	0.00066	0.0006)														
(0.00024	0.00066	0.0006)														
(0.00044	0.00066	0.0006)														
(0.00064	0.00066	0.0006)														
(0.00084	0.00066	0.0006)														
(-0.00096	0.00056	0.0006)														
(-0.00076	0.00056	0.0006)														
(-0.00056	0.00056	0.0006)														
(-0.00036	0.00056	0.0006)														
(-0.00016	0.00056	0.0006)														
(0.00004	0.00056	0.0006)														
(0.00024	0.00056	0.0006)														
(0.00044	0.00056	0.0006)														
(0.00064	0.00056	0.0006)														
(0.00084	0.00056	0.0006)														
(-0.00096	0.00046	0.0006)														
(-0.00076	0.00046	0.0006)														
(-0.00056	0.00046	0.0006)														
(-0.00036	0.00046	0.0006)														
(-0.00016	0.00046	0.0006)														
(0.00004	0.00046	0.0006)														
(0.00024	0.00046	0.0006)														
(0.00044	0.00046	0.0006)														
(0.00064	0.00046	0.0006)														
(0.00084	0.00046	0.0006)														
(-0.00096	0.00036	0.0006)														
(-0.00076	0.00036	0.0006)														
(-0.00056	0.00036	0.0006)														
(-0.00036	0.00036	0.0006)														
(-0.00016	0.00036	0.0006)														
(0.00004	0.00036	0.0006)														
(0.00024	0.00036	0.0006)														
(0.00044	0.00036	0.0006)														
(0.00064	0.00036	0.0006)														
(0.00084	0.00036	0.0006)														
(-0.00096	0.00026	0.0006)														
(-0.00076	0.00026	0.0006)														
(-0.00056	0.00026	0.0006)														
(-0.00036	0.00026	0.0006)														
(-0.00016	0.00026	0.0006)														
(0.00004	0.00026	0.0006)														
(0.00024	0.00026	0.0006)														
(0.00044	0.00026	0.0006)														
(0.00064	0.00026	0.0006)														
(0.00084	0.00026	0.0006)														
(-0.00096	0.00016	0.0006)														
(-0.00076	0.00016	0.0006)														
(-0.00056	0.00016	0.0006)														
(-0.00036	0.00016	0.0006)														
(-0.00016	0.00016	0.0006)														
(0.00004	0.00016	0.0006)														
(0.00024	0.00016	0.0006)														
(0.00044	0.00016	0.0006)														
(0.00064	0.00016	0.0006)														
(0.00084	0.00016	0.0006)														
(-0.00096	0.00006	0.0006)														
(-0.00076	0.00006	0.0006)														
(-0.00056	0.00006	0.0006)														
(-0.00036	0.00006	0.0006)														
(-0.00016	0.00006	0.0006)														
(0.00004	0.00006	0.0006)														
(0.00024	0.00006	0.0006)														
(0.00044	0.00006	0.0006)														
(0.00064	0.00006	0.0006)														
(0.00084	0.00006	0.0006)														
(-0.00096	0.00096	0.00073)														
(-0.00076	0.00096	0.00073)														
(-0.00056	0.00096	0.00073)														
(-0.00036	0.00096	0.00073)														
(-0.00016	0.00096	0.00073)														
(0.00004	0.00096	0.00073)														
(0.00024	0.00096	0.00073)														
(0.00044	0.00096	0.00073)														
(0.00064	0.00096	0.00073)														
(0.00084	0.00096	0.00073)														
(-0.00096	0.00086	0.00073)														
(-0.00076	0.00086	0.00073)														
(-0.00056	0.00086	0.00073)														
(-0.00036	0.00086	0.00073)														
(-0.00016	0.00086	0.00073)														
(0.00004	0.00086	0.00073)														
(0.00024	0.00086	0.00073)														
(0.00044	0.00086	0.00073)														
(0.00064	0.00086	0.00073)														
(0.00084	0.00086	0.00073)														
(-0.00096	0.00076	0.00073)														
(-0.00076	0.00076	0.00073)														
(-0.00056	0.00076	0.00073)														
(-0.00036	0.00076	0.00073)														
(-0.00016	0.00076	0.00073)														
(0.00004	0.00076	0.00073)														
(0.00024	0.00076	0.00073)														
(0.00044	0.00076	0.00073)														
(0.00064	0.00076	0.00073)														
(0.00084	0.00076	0.00073)														
(-0.00096	0.00066	0.00073)														
(-0.00076	0.00066	0.00073)														
(-0.00056	0.00066	0.00073)														
(-0.00036	0.00066	0.00073)														
(-0.00016	0.00066	0.00073)														
(0.00004	0.00066	0.00073)														
(0.00024	0.00066	0.00073)														
(0.00044	0.00066	0.00073)														
(0.00064	0.00066	0.00073)														
(0.00084	0.00066	0.00073)														
(-0.00096	0.00056	0.00073)														
(-0.00076	0.00056	0.00073)														
(-0.00056	0.00056	0.00073)														
(-0.00036	0.00056	0.00073)														
(-0.00016	0.00056	0.00073)														
(0.00004	0.00056	0.00073)														
(0.00024	0.00056	0.00073)														
(0.00044	0.00056	0.00073)														
(0.00064	0.00056	0.00073)														
(0.00084	0.00056	0.00073)														
(-0.00096	0.00046	0.00073)														
(-0.00076	0.00046	0.00073)														
(-0.00056	0.00046	0.00073)														
(-0.00036	0.00046	0.00073)														
(-0.00016	0.00046	0.00073)														
(0.00004	0.00046	0.00073)														
(0.00024	0.00046	0.00073)														
(0.00044	0.00046	0.00073)														
(0.00064	0.00046	0.00073)														
(0.00084	0.00046	0.00073)														
(-0.00096	0.00036	0.00073)														
(-0.00076	0.00036	0.00073)														
(-0.00056	0.00036	0.00073)														
(-0.00036	0.00036	0.00073)														
(-0.00016	0.00036	0.00073)														
(0.00004	0.00036	0.00073)														
(0.00024	0.00036	0.00073)														
(0.00044	0.00036	0.00073)														
(0.00064	0.00036	0.00073)														
(0.00084	0.00036	0.00073)														
(-0.00096	0.00026	0.00073)														
(-0.00076	0.00026	0.00073)														
(-0.00056	0.00026	0.00073)														
(-0.00036	0.00026	0.00073)														
(-0.00016	0.00026	0.00073)														
(0.00004	0.00026	0.00073)														
(0.00024	0.00026	0.00073)														
(0.00044	0.00026	0.00073)														
(0.00064	0.00026	0.00073)														
(0.00084	0.00026	0.00073)														
(-0.00096	0.00016	0.00073)														
(-0.00076	0.00016	0.00073)														
(-0.00056	0.00016	0.00073)														
(-0.00036	0.00016	0.00073)														
(-0.00016	0.00016	0.00073)														
(0.00004	0.00016	0.00073)														
(0.00024	0.00016	0.00073)														
(0.00044	0.00016	0.00073)														
(0.00064	0.00016	0.00073)														
(0.00084	0.00016	0.00073)														
(-0.00096	0.00006	0.00073)														
(-0.00076	0.00006	0.00073)														
(-0.00056	0.00006	0.00073)														
(-0.00036	0.00006	0.00073)														
(-0.00016	0.00006	0.00073)														
(0.00004	0.00006	0.00073)														
(0.00024	0.00006	0.00073)														
(0.00044	0.00006	0.00073)														
(0.00064	0.00006	0.00073)														
(0.00084	0.00006	0.00073)														
(-0.00096	0.00096	0.00085)														
(-0.00076	0.00096	0.00085)														
(-0.00056	0.00096	0.00085)														
(-0.00036	0.00096	0.00085)														
(-0.00016	0.00096	0.00085)														
(0.00004	0.00096	0.00085)														
(0.00024	0.00096	0.00085)														
(0.00044	0.00096	0.00085)														
(0.00064	0.00096	0.00085)														
(0.00084	0.00096	0.00085)														
(-0.00096	0.00086	0.00085)														
(-0.00076	0.00086	0.00085)														
(-0.00056	0.00086	0.00085)														
(-0.00036	0.00086	0.00085)														
(-0.00016	0.00086	0.00085)														
(0.00004	0.00086	0.00085)														
(0.00024	0.00086	0.00085)														
(0.00044	0.00086	0.00085)														
(0.00064	0.00086	0.00085)														
(0.00084	0.00086	0.00085)														
(-0.00096	0.00076	0.00085)														
(-0.00076	0.00076	0.00085)														
(-0.00056	0.00076	0.00085)														
(-0.00036	0.00076	0.00085)														
(-0.00016	0.00076	0.00085)														
(0.00004	0.00076	0.00085)														
(0.00024	0.00076	0.00085)														
(0.00044	0.00076	0.00085)														
(0.00064	0.00076	0.00085)														
(0.00084	0.00076	0.00085)														
(-0.00096	0.00066	0.00085)														
(-0.00076	0.00066	0.00085)														
(-0.00056	0.00066	0.00085)														
(-0.00036	0.00066	0.00085)														
(-0.00016	0.00066	0.00085)														
(0.00004	0.00066	0.00085)														
(0.00024	0.00066	0.00085)														
(0.00044	0.00066	0.00085)														
(0.00064	0.00066	0.00085)														
(0.00084	0.00066	0.00085)														
(-0.00096	0.00056	0.00085)														
(-0.00076	0.00056	0.00085)														
(-0.00056	0.00056	0.00085)														
(-0.00036	0.00056	0.00085)														
(-0.00016	0.00056	0.00085)														
(0.00004	0.00056	0.00085)														
(0.00024	0.00056	0.00085)														
(0.00044	0.00056	0.00085)														
(0.00064	0.00056	0.00085)														
(0.00084	0.00056	0.00085)														
(-0.00096	0.00046	0.00085)														
(-0.00076	0.00046	0.00085)														
(-0.00056	0.00046	0.00085)														
(-0.00036	0.00046	0.00085)														
(-0.00016	0.00046	0.00085)														
(0.00004	0.00046	0.00085)														
(0.00024	0.00046	0.00085)														
(0.00044	0.00046	0.00085)														
(0.00064	0.00046	0.00085)														
(0.00084	0.00046	0.00085)														
(-0.00096	0.00036	0.00085)														
(-0.00076	0.00036	0.00085)														
(-0.00056	0.00036	0.00085)														
(-0.00036	0.00036	0.00085)														
(-0.00016	0.00036	0.00085)														
(0.00004	0.00036	0.00085)														
(0.00024	0.00036	0.00085)														
(0.00044	0.00036	0.00085)														
(0.00064	0.00036	0.00085)														
(0.00084	0.00036	0.00085)														
(-0.00096	0.00026	0.00085)														
(-0.00076	0.00026	0.00085)														
(-0.00056	0.00026	0.00085)														
(-0.00036	0.00026	0.00085)														
(-0.00016	0.00026	0.00085)														
(0.00004	0.00026	0.00085)														
(0.00024	0.00026	0.00085)														
(0.00044	0.00026	0.00085)														
(0.00064	0.00026	0.00085)														
(0.00084	0.00026	0.00085)														
(-0.00096	0.00016	0.00085)														
(-0.00076	0.00016	0.00085)														
(-0.00056	0.00016	0.00085)														
(-0.00036	0.00016	0.00085)														
(-0.00016	0.00016	0.00085)														
(0.00004	0.00016	0.00085)														
(0.00024	0.00016	0.00085)														
(0.00044	0.00016	0.00085)														
(0.00064	0.00016	0.00085)														
(0.00084	0.00016	0.00085)														
(-0.00096	0.00006	0.00085)														
(-0.00076	0.00006	0.00085)														
(-0.00056	0.00006	0.00085)														
(-0.00036	0.00006	0.00085)														
(-0.00016	0.00006	0.00085)														
(0.00004	0.00006	0.00085)														
(0.00024	0.00006	0.00085)														
(0.00044	0.00006	0.00085)														
(0.00064	0.00006	0.00085)														