/*--------------------------------*-	C++	-*----------------------------------*\																																				
	=========	|																																				
	//	/	F	ield	|	OpenFOAM:	The	Open	Source	CFD	Toolbox																											
	//	/	O	peration	|	Website:	https://openfoam.org																															
	//	/	A	nd	|	Version:	7																															
	//	M	anipulation	|																																		
/*---------------------------------------------------------------------------*/																																						
FoamFile																																						
{																																						
	version	2.0;																																				
	format	ascii;																																				
	class	vectorField;																																				
	object	kinematicCloudPositions;																																				
}																																						
//	*	*	*	*	*	*	*	*	*	*	*	*	*	*	*	*	*	*	*	*	*	*	*	*	*	*	*	*	*	*	*	*	*	*	*	*	*	//
																																						
(																																						
(-0.00099	-0.000989949	0.00002)																																				
(-0.00049	-0.000989949	0.00002)																																				
(0	-0.000989949	0.00002)																																				
(0.00049	-0.000989949	0.00002)																																				
(0.00099	-0.000989949	0.00002)																																				
(-0.00099	-0.000949543	0.00002)																																				
(-0.00049	-0.000949543	0.00002)																																				
(0	-0.000949543	0.00002)																																				
(0.00049	-0.000949543	0.00002)																																				
(0.00099	-0.000949543	0.00002)																																				
(-0.00099	-0.000909137	0.00002)																																				
(-0.00049	-0.000909137	0.00002)																																				
(0	-0.000909137	0.00002)																																				
(0.00049	-0.000909137	0.00002)																																				
(0.00099	-0.000909137	0.00002)																																				
(-0.00099	-0.000868731	0.00002)																																				
(-0.00049	-0.000868731	0.00002)																																				
(0	-0.000868731	0.00002)																																				
(0.00049	-0.000868731	0.00002)																																				
(0.00099	-0.000868731	0.00002)																																				
(-0.00099	-0.000828325	0.00002)																																				
(-0.00049	-0.000828325	0.00002)																																				
(0	-0.000828325	0.00002)																																				
(0.00049	-0.000828325	0.00002)																																				
(0.00099	-0.000828325	0.00002)																																				
(-0.00099	-0.000787919	0.00002)																																				
(-0.00049	-0.000787919	0.00002)																																				
(0	-0.000787919	0.00002)																																				
(0.00049	-0.000787919	0.00002)																																				
(0.00099	-0.000787919	0.00002)																																				
(-0.00099	-0.000747513	0.00002)																																				
(-0.00049	-0.000747513	0.00002)																																				
(0	-0.000747513	0.00002)																																				
(0.00049	-0.000747513	0.00002)																																				
(0.00099	-0.000747513	0.00002)																																				
(-0.00099	-0.000707107	0.00002)																																				
(-0.00049	-0.000707107	0.00002)																																				
(0	-0.000707107	0.00002)																																				
(0.00049	-0.000707107	0.00002)																																				
(0.00099	-0.000707107	0.00002)																																				
(-0.00099	-0.000666701	0.00002)																																				
(-0.00049	-0.000666701	0.00002)																																				
(0	-0.000666701	0.00002)																																				
(0.00049	-0.000666701	0.00002)																																				
(0.00099	-0.000666701	0.00002)																																				
(-0.00099	-0.000626295	0.00002)																																				
(-0.00049	-0.000626295	0.00002)																																				
(0	-0.000626295	0.00002)																																				
(0.00049	-0.000626295	0.00002)																																				
(0.00099	-0.000626295	0.00002)																																				
(-0.00099	-0.000585888	0.00002)																																				
(-0.00049	-0.000585888	0.00002)																																				
(0	-0.000585888	0.00002)																																				
(0.00049	-0.000585888	0.00002)																																				
(0.00099	-0.000585888	0.00002)																																				
(-0.00099	-0.000545482	0.00002)																																				
(-0.00049	-0.000545482	0.00002)																																				
(0	-0.000545482	0.00002)																																				
(0.00049	-0.000545482	0.00002)																																				
(0.00099	-0.000545482	0.00002)																																				
(-0.00099	-0.000505076	0.00002)																																				
(-0.00049	-0.000505076	0.00002)																																				
(0	-0.000505076	0.00002)																																				
(0.00049	-0.000505076	0.00002)																																				
(0.00099	-0.000505076	0.00002)																																				
(-0.00099	-0.00046467	0.00002)																																				
(-0.00049	-0.00046467	0.00002)																																				
(0	-0.00046467	0.00002)																																				
(0.00049	-0.00046467	0.00002)																																				
(0.00099	-0.00046467	0.00002)																																				
(-0.00099	-0.000424264	0.00002)																																				
(-0.00049	-0.000424264	0.00002)																																				
(0	-0.000424264	0.00002)																																				
(0.00049	-0.000424264	0.00002)																																				
(0.00099	-0.000424264	0.00002)																																				
(-0.00099	-0.000383858	0.00002)																																				
(-0.00049	-0.000383858	0.00002)																																				
(0	-0.000383858	0.00002)																																				
(0.00049	-0.000383858	0.00002)																																				
(0.00099	-0.000383858	0.00002)																																				
(-0.00099	-0.000343452	0.00002)																																				
(-0.00049	-0.000343452	0.00002)																																				
(0	-0.000343452	0.00002)																																				
(0.00049	-0.000343452	0.00002)																																				
(0.00099	-0.000343452	0.00002)																																				
(-0.00099	-0.000303046	0.00002)																																				
(-0.00049	-0.000303046	0.00002)																																				
(0	-0.000303046	0.00002)																																				
(0.00049	-0.000303046	0.00002)																																				
(0.00099	-0.000303046	0.00002)																																				
(-0.00099	-0.00026264	0.00002)																																				
(-0.00049	-0.00026264	0.00002)																																				
(0	-0.00026264	0.00002)																																				
(0.00049	-0.00026264	0.00002)																																				
(0.00099	-0.00026264	0.00002)																																				
(-0.00099	-0.000222234	0.00002)																																				
(-0.00049	-0.000222234	0.00002)																																				
(0	-0.000222234	0.00002)																																				
(0.00049	-0.000222234	0.00002)																																				
(0.00099	-0.000222234	0.00002)																																				
(-0.00099	-0.000181827	0.00002)																																				
(-0.00049	-0.000181827	0.00002)																																				
(0	-0.000181827	0.00002)																																				
(0.00049	-0.000181827	0.00002)																																				
(0.00099	-0.000181827	0.00002)																																				
(-0.00099	-0.000141421	0.00002)																																				
(-0.00049	-0.000141421	0.00002)																																				
(0	-0.000141421	0.00002)																																				
(0.00049	-0.000141421	0.00002)																																				
(0.00099	-0.000141421	0.00002)																																				
(-0.00099	-0.000101015	0.00002)																																				
(-0.00049	-0.000101015	0.00002)																																				
(0	-0.000101015	0.00002)																																				
(0.00049	-0.000101015	0.00002)																																				
(0.00099	-0.000101015	0.00002)																																				
(-0.00099	-6.06092E-05	0.00002)																																				
(-0.00049	-6.06092E-05	0.00002)																																				
(0	-6.06092E-05	0.00002)																																				
(0.00049	-6.06092E-05	0.00002)																																				
(0.00099	-6.06092E-05	0.00002)																																				
(-0.00099	-2.02031E-05	0.00002)																																				
(-0.00049	-2.02031E-05	0.00002)																																				
(0	-2.02031E-05	0.00002)																																				
(0.00049	-2.02031E-05	0.00002)																																				
(0.00099	-2.02031E-05	0.00002)																																				
(-0.00099	2.02031E-05	0.00002)																																				
(-0.00049	2.02031E-05	0.00002)																																				
(0	2.02031E-05	0.00002)																																				
(0.00049	2.02031E-05	0.00002)																																				
(0.00099	2.02031E-05	0.00002)																																				
(-0.00099	6.06092E-05	0.00002)																																				
(-0.00049	6.06092E-05	0.00002)																																				
(0	6.06092E-05	0.00002)																																				
(0.00049	6.06092E-05	0.00002)																																				
(0.00099	6.06092E-05	0.00002)																																				
(-0.00099	0.000101015	0.00002)																																				
(-0.00049	0.000101015	0.00002)																																				
(0	0.000101015	0.00002)																																				
(0.00049	0.000101015	0.00002)																																				
(0.00099	0.000101015	0.00002)																																				
(-0.00099	0.000141421	0.00002)																																				
(-0.00049	0.000141421	0.00002)																																				
(0	0.000141421	0.00002)																																				
(0.00049	0.000141421	0.00002)																																				
(0.00099	0.000141421	0.00002)																																				
(-0.00099	0.000181827	0.00002)																																				
(-0.00049	0.000181827	0.00002)																																				
(0	0.000181827	0.00002)																																				
(0.00049	0.000181827	0.00002)																																				
(0.00099	0.000181827	0.00002)																																				
(-0.00099	0.000222234	0.00002)																																				
(-0.00049	0.000222234	0.00002)																																				
(0	0.000222234	0.00002)																																				
(0.00049	0.000222234	0.00002)																																				
(0.00099	0.000222234	0.00002)																																				
(-0.00099	0.00026264	0.00002)																																				
(-0.00049	0.00026264	0.00002)																																				
(0	0.00026264	0.00002)																																				
(0.00049	0.00026264	0.00002)																																				
(0.00099	0.00026264	0.00002)																																				
(-0.00099	0.000303046	0.00002)																																				
(-0.00049	0.000303046	0.00002)																																				
(0	0.000303046	0.00002)																																				
(0.00049	0.000303046	0.00002)																																				
(0.00099	0.000303046	0.00002)																																				
(-0.00099	0.000343452	0.00002)																																				
(-0.00049	0.000343452	0.00002)																																				
(0	0.000343452	0.00002)																																				
(0.00049	0.000343452	0.00002)																																				
(0.00099	0.000343452	0.00002)																																				
(-0.00099	0.000383858	0.00002)																																				
(-0.00049	0.000383858	0.00002)																																				
(0	0.000383858	0.00002)																																				
(0.00049	0.000383858	0.00002)																																				
(0.00099	0.000383858	0.00002)																																				
(-0.00099	0.000424264	0.00002)																																				
(-0.00049	0.000424264	0.00002)																																				
(0	0.000424264	0.00002)																																				
(0.00049	0.000424264	0.00002)																																				
(0.00099	0.000424264	0.00002)																																				
(-0.00099	0.00046467	0.00002)																																				
(-0.00049	0.00046467	0.00002)																																				
(0	0.00046467	0.00002)																																				
(0.00049	0.00046467	0.00002)																																				
(0.00099	0.00046467	0.00002)																																				
(-0.00099	0.000505076	0.00002)																																				
(-0.00049	0.000505076	0.00002)																																				
(0	0.000505076	0.00002)																																				
(0.00049	0.000505076	0.00002)																																				
(0.00099	0.000505076	0.00002)																																				
(-0.00099	0.000545482	0.00002)																																				
(-0.00049	0.000545482	0.00002)																																				
(0	0.000545482	0.00002)																																				
(0.00049	0.000545482	0.00002)																																				
(0.00099	0.000545482	0.00002)																																				
(-0.00099	0.000585888	0.00002)																																				
(-0.00049	0.000585888	0.00002)																																				
(0	0.000585888	0.00002)																																				
(0.00049	0.000585888	0.00002)																																				
(0.00099	0.000585888	0.00002)																																				
(-0.00099	0.000626295	0.00002)																																				
(-0.00049	0.000626295	0.00002)																																				
(0	0.000626295	0.00002)																																				
(0.00049	0.000626295	0.00002)																																				
(0.00099	0.000626295	0.00002)																																				
(-0.00099	0.000666701	0.00002)																																				
(-0.00049	0.000666701	0.00002)																																				
(0	0.000666701	0.00002)																																				
(0.00049	0.000666701	0.00002)																																				
(0.00099	0.000666701	0.00002)																																				
(-0.00099	0.000707107	0.00002)																																				
(-0.00049	0.000707107	0.00002)																																				
(0	0.000707107	0.00002)																																				
(0.00049	0.000707107	0.00002)																																				
(0.00099	0.000707107	0.00002)																																				
(-0.00099	0.000747513	0.00002)																																				
(-0.00049	0.000747513	0.00002)																																				
(0	0.000747513	0.00002)																																				
(0.00049	0.000747513	0.00002)																																				
(0.00099	0.000747513	0.00002)																																				
(-0.00099	0.000787919	0.00002)																																				
(-0.00049	0.000787919	0.00002)																																				
(0	0.000787919	0.00002)																																				
(0.00049	0.000787919	0.00002)																																				
(0.00099	0.000787919	0.00002)																																				
(-0.00099	0.000828325	0.00002)																																				
(-0.00049	0.000828325	0.00002)																																				
(0	0.000828325	0.00002)																																				
(0.00049	0.000828325	0.00002)																																				
(0.00099	0.000828325	0.00002)																																				
(-0.00099	0.000868731	0.00002)																																				
(-0.00049	0.000868731	0.00002)																																				
(0	0.000868731	0.00002)																																				
(0.00049	0.000868731	0.00002)																																				
(0.00099	0.000868731	0.00002)																																				
(-0.00099	0.000909137	0.00002)																																				
(-0.00049	0.000909137	0.00002)																																				
(0	0.000909137	0.00002)																																				
(0.00049	0.000909137	0.00002)																																				
(0.00099	0.000909137	0.00002)																																				
(-0.00099	0.000949543	0.00002)																																				
(-0.00049	0.000949543	0.00002)																																				
(0	0.000949543	0.00002)																																				
(0.00049	0.000949543	0.00002)																																				
(0.00099	0.000949543	0.00002)																																				
(-0.00099	0.000989949	0.00002)																																				
(-0.00049	0.000989949	0.00002)																																				
(0	0.000989949	0.00002)																																				
(0.00049	0.000989949	0.00002)																																				
(0.00099	0.000989949	0.00002)																																				
(-0.00099	-0.000989949	0.00007)																																				
(-0.00049	-0.000989949	0.00007)																																				
(0	-0.000989949	0.00007)																																				
(0.00049	-0.000989949	0.00007)																																				
(0.00099	-0.000989949	0.00007)																																				
(-0.00099	-0.000949543	0.00007)																																				
(-0.00049	-0.000949543	0.00007)																																				
(0	-0.000949543	0.00007)																																				
(0.00049	-0.000949543	0.00007)																																				
(0.00099	-0.000949543	0.00007)																																				
(-0.00099	-0.000909137	0.00007)																																				
(-0.00049	-0.000909137	0.00007)																																				
(0	-0.000909137	0.00007)																																				
(0.00049	-0.000909137	0.00007)																																				
(0.00099	-0.000909137	0.00007)																																				
(-0.00099	-0.000868731	0.00007)																																				
(-0.00049	-0.000868731	0.00007)																																				
(0	-0.000868731	0.00007)																																				
(0.00049	-0.000868731	0.00007)																																				
(0.00099	-0.000868731	0.00007)																																				
(-0.00099	-0.000828325	0.00007)																																				
(-0.00049	-0.000828325	0.00007)																																				
(0	-0.000828325	0.00007)																																				
(0.00049	-0.000828325	0.00007)																																				
(0.00099	-0.000828325	0.00007)																																				
(-0.00099	-0.000787919	0.00007)																																				
(-0.00049	-0.000787919	0.00007)																																				
(0	-0.000787919	0.00007)																																				
(0.00049	-0.000787919	0.00007)																																				
(0.00099	-0.000787919	0.00007)																																				
(-0.00099	-0.000747513	0.00007)																																				
(-0.00049	-0.000747513	0.00007)																																				
(0	-0.000747513	0.00007)																																				
(0.00049	-0.000747513	0.00007)																																				
(0.00099	-0.000747513	0.00007)																																				
(-0.00099	-0.000707107	0.00007)																																				
(-0.00049	-0.000707107	0.00007)																																				
(0	-0.000707107	0.00007)																																				
(0.00049	-0.000707107	0.00007)																																				
(0.00099	-0.000707107	0.00007)																																				
(-0.00099	-0.000666701	0.00007)																																				
(-0.00049	-0.000666701	0.00007)																																				
(0	-0.000666701	0.00007)																																				
(0.00049	-0.000666701	0.00007)																																				
(0.00099	-0.000666701	0.00007)																																				
(-0.00099	-0.000626295	0.00007)																																				
(-0.00049	-0.000626295	0.00007)																																				
(0	-0.000626295	0.00007)																																				
(0.00049	-0.000626295	0.00007)																																				
(0.00099	-0.000626295	0.00007)																																				
(-0.00099	-0.000585888	0.00007)																																				
(-0.00049	-0.000585888	0.00007)																																				
(0	-0.000585888	0.00007)																																				
(0.00049	-0.000585888	0.00007)																																				
(0.00099	-0.000585888	0.00007)																																				
(-0.00099	-0.000545482	0.00007)																																				
(-0.00049	-0.000545482	0.00007)																																				
(0	-0.000545482	0.00007)																																				
(0.00049	-0.000545482	0.00007)																																				
(0.00099	-0.000545482	0.00007)																																				
(-0.00099	-0.000505076	0.00007)																																				
(-0.00049	-0.000505076	0.00007)																																				
(0	-0.000505076	0.00007)																																				
(0.00049	-0.000505076	0.00007)																																				
(0.00099	-0.000505076	0.00007)																																				
(-0.00099	-0.00046467	0.00007)																																				
(-0.00049	-0.00046467	0.00007)																																				
(0	-0.00046467	0.00007)																																				
(0.00049	-0.00046467	0.00007)																																				
(0.00099	-0.00046467	0.00007)																																				
(-0.00099	-0.000424264	0.00007)																																				
(-0.00049	-0.000424264	0.00007)																																				
(0	-0.000424264	0.00007)																																				
(0.00049	-0.000424264	0.00007)																																				
(0.00099	-0.000424264	0.00007)																																				
(-0.00099	-0.000383858	0.00007)																																				
(-0.00049	-0.000383858	0.00007)																																				
(0	-0.000383858	0.00007)																																				
(0.00049	-0.000383858	0.00007)																																				
(0.00099	-0.000383858	0.00007)																																				
(-0.00099	-0.000343452	0.00007)																																				
(-0.00049	-0.000343452	0.00007)																																				
(0	-0.000343452	0.00007)																																				
(0.00049	-0.000343452	0.00007)																																				
(0.00099	-0.000343452	0.00007)																																				
(-0.00099	-0.000303046	0.00007)																																				
(-0.00049	-0.000303046	0.00007)																																				
(0	-0.000303046	0.00007)																																				
(0.00049	-0.000303046	0.00007)																																				
(0.00099	-0.000303046	0.00007)																																				
(-0.00099	-0.00026264	0.00007)																																				
(-0.00049	-0.00026264	0.00007)																																				
(0	-0.00026264	0.00007)																																				
(0.00049	-0.00026264	0.00007)																																				
(0.00099	-0.00026264	0.00007)																																				
(-0.00099	-0.000222234	0.00007)																																				
(-0.00049	-0.000222234	0.00007)																																				
(0	-0.000222234	0.00007)																																				
(0.00049	-0.000222234	0.00007)																																				
(0.00099	-0.000222234	0.00007)																																				
(-0.00099	-0.000181827	0.00007)																																				
(-0.00049	-0.000181827	0.00007)																																				
(0	-0.000181827	0.00007)																																				
(0.00049	-0.000181827	0.00007)																																				
(0.00099	-0.000181827	0.00007)																																				
(-0.00099	-0.000141421	0.00007)																																				
(-0.00049	-0.000141421	0.00007)																																				
(0	-0.000141421	0.00007)																																				
(0.00049	-0.000141421	0.00007)																																				
(0.00099	-0.000141421	0.00007)																																				
(-0.00099	-0.000101015	0.00007)																																				
(-0.00049	-0.000101015	0.00007)																																				
(0	-0.000101015	0.00007)																																				
(0.00049	-0.000101015	0.00007)																																				
(0.00099	-0.000101015	0.00007)																																				
(-0.00099	-6.06092E-05	0.00007)																																				
(-0.00049	-6.06092E-05	0.00007)																																				
(0	-6.06092E-05	0.00007)																																				
(0.00049	-6.06092E-05	0.00007)																																				
(0.00099	-6.06092E-05	0.00007)																																				
(-0.00099	-2.02031E-05	0.00007)																																				
(-0.00049	-2.02031E-05	0.00007)																																				
(0	-2.02031E-05	0.00007)																																				
(0.00049	-2.02031E-05	0.00007)																																				
(0.00099	-2.02031E-05	0.00007)																																				
(-0.00099	2.02031E-05	0.00007)																																				
(-0.00049	2.02031E-05	0.00007)																																				
(0	2.02031E-05	0.00007)																																				
(0.00049	2.02031E-05	0.00007)																																				
(0.00099	2.02031E-05	0.00007)																																				
(-0.00099	6.06092E-05	0.00007)																																				
(-0.00049	6.06092E-05	0.00007)																																				
(0	6.06092E-05	0.00007)																																				
(0.00049	6.06092E-05	0.00007)																																				
(0.00099	6.06092E-05	0.00007)																																				
(-0.00099	0.000101015	0.00007)																																				
(-0.00049	0.000101015	0.00007)																																				
(0	0.000101015	0.00007)																																				
(0.00049	0.000101015	0.00007)																																				
(0.00099	0.000101015	0.00007)																																				
(-0.00099	0.000141421	0.00007)																																				
(-0.00049	0.000141421	0.00007)																																				
(0	0.000141421	0.00007)																																				
(0.00049	0.000141421	0.00007)																																				
(0.00099	0.000141421	0.00007)																																				
(-0.00099	0.000181827	0.00007)																																				
(-0.00049	0.000181827	0.00007)																																				
(0	0.000181827	0.00007)																																				
(0.00049	0.000181827	0.00007)																																				
(0.00099	0.000181827	0.00007)																																				
(-0.00099	0.000222234	0.00007)																																				
(-0.00049	0.000222234	0.00007)																																				
(0	0.000222234	0.00007)																																				
(0.00049	0.000222234	0.00007)																																				
(0.00099	0.000222234	0.00007)																																				
(-0.00099	0.00026264	0.00007)																																				
(-0.00049	0.00026264	0.00007)																																				
(0	0.00026264	0.00007)																																				
(0.00049	0.00026264	0.00007)																																				
(0.00099	0.00026264	0.00007)																																				
(-0.00099	0.000303046	0.00007)																																				
(-0.00049	0.000303046	0.00007)																																				
(0	0.000303046	0.00007)																																				
(0.00049	0.000303046	0.00007)																																				
(0.00099	0.000303046	0.00007)																																				
(-0.00099	0.000343452	0.00007)																																				
(-0.00049	0.000343452	0.00007)																																				
(0	0.000343452	0.00007)																																				
(0.00049	0.000343452	0.00007)																																				
(0.00099	0.000343452	0.00007)																																				
(-0.00099	0.000383858	0.00007)																																				
(-0.00049	0.000383858	0.00007)																																				
(0	0.000383858	0.00007)																																				
(0.00049	0.000383858	0.00007)																																				
(0.00099	0.000383858	0.00007)																																				
(-0.00099	0.000424264	0.00007)																																				
(-0.00049	0.000424264	0.00007)																																				
(0	0.000424264	0.00007)																																				
(0.00049	0.000424264	0.00007)																																				
(0.00099	0.000424264	0.00007)																																				
(-0.00099	0.00046467	0.00007)																																				
(-0.00049	0.00046467	0.00007)																																				
(0	0.00046467	0.00007)																																				